xflr5 v6.61

Plane Name
T1-10.0 m/s-Panel-0.0kg-x0.0m-Inviscid
QInf  =   10.000000 m/s
Alpha =    5.000000
Beta  =    0.000°
Phi   =    0.000°
Ctrl  =    0.000
CL    =    0.800064
Cy    =    0.000000
Cd    =    0.022409     ICd   =    0.022409     PCd   =    0.000000
Cl   = 1.37622e-15
Cm   =   -0.932021
ICn   =    0.000000     PCn   =    0.000000 
XCP   =    3.578835     YCP   =   -0.000000     ZCP   =    0.346770  
XNP   =    0.000000
Bending = 7404.764818

Main Wing
  y-span        Chord      Ai         Cl        PCd          ICd        CmGeom    CmAirf@chord/4    XTrtop    XTrBot      XCP       BM
  -11.9595     1.3346    -7.509    0.271149    0.000000    0.035745   -1.469990   -0.031130     0.0000    0.0000    0.3424    0.0000
  -11.8778     1.3530    -5.526    0.444389    0.000000    0.042991   -2.113503   -0.061012     0.0000    0.0000    0.3759    0.0764
  -11.7150     1.3896    -4.205    0.592642    0.000000    0.043571   -2.580538   -0.068661     0.0000    0.0000    0.3607    0.9866
  -11.4722     1.4442    -3.252    0.703470    0.000000    0.039966   -2.895706   -0.080741     0.0000    0.0000    0.3601    4.9122
  -11.1509     1.5165    -2.587    0.780851    0.000000    0.035277   -3.009416   -0.091013     0.0000    0.0000    0.3616   15.9315
  -10.7535     1.6059    -2.116    0.830873    0.000000    0.030687   -2.953579   -0.098281     0.0000    0.0000    0.3631   40.2674
  -10.2827     1.7118    -1.788    0.860071    0.000000    0.026834   -2.781154   -0.102896     0.0000    0.0000    0.3643   86.3672
   -9.7416     1.8336    -1.573    0.874279    0.000000    0.023993   -2.541115   -0.105652     0.0000    0.0000    0.3654   164.8607
   -9.1339     1.9702    -1.445    0.877949    0.000000    0.022127   -2.270085   -0.107234     0.0000    0.0000    0.3667   288.4240
   -8.4639     2.1210    -1.381    0.874152    0.000000    0.021054   -1.992432   -0.108096     0.0000    0.0000    0.3682   471.5464
   -7.7361     2.2847    -1.364    0.864887    0.000000    0.020569   -1.723042   -0.108527     0.0000    0.0000    0.3701   730.1792
   -6.9554     2.4603    -1.380    0.851384    0.000000    0.020487   -1.470459   -0.108687     0.0000    0.0000    0.3723   1081.2506
   -6.1271     2.6466    -1.421    0.834349    0.000000    0.020660   -1.239006   -0.108680     0.0000    0.0000    0.3750   1542.0358
   -5.2571     2.8424    -1.477    0.814115    0.000000    0.020961   -1.030366   -0.108587     0.0000    0.0000    0.3782   2129.3863
   -4.3511     3.0462    -1.544    0.790712    0.000000    0.021262   -0.844717   -0.108491     0.0000    0.0000    0.3822   2858.8341
   -3.4154     3.2567    -1.610    0.763922    0.000000    0.021418   -0.681424   -0.108545     0.0000    0.0000    0.3872   3743.5951
   -2.4564     3.4724    -1.663    0.733256    0.000000    0.021215   -0.539670   -0.109089     0.0000    0.0000    0.3941   4793.5094
   -1.4806     3.6919    -1.668    0.697752    0.000000    0.020187   -0.419045   -0.110962     0.0000    0.0000    0.4047   6013.9581
   -0.4947     3.9137    -1.493    0.653916    0.000000    0.016647   -0.321132   -0.117216     0.0000    0.0000    0.4253   7404.7648
    0.4947     3.9137    -1.493    0.653916    0.000000    0.016647   -0.321132   -0.117216     0.0000    0.0000    0.4253   7404.7648
    1.4806     3.6919    -1.668    0.697752    0.000000    0.020187   -0.419045   -0.110962     0.0000    0.0000    0.4047   6013.9581
    2.4564     3.4724    -1.663    0.733256    0.000000    0.021215   -0.539670   -0.109089     0.0000    0.0000    0.3941   4793.5094
    3.4154     3.2567    -1.610    0.763922    0.000000    0.021418   -0.681424   -0.108545     0.0000    0.0000    0.3872   3743.5951
    4.3511     3.0462    -1.544    0.790712    0.000000    0.021262   -0.844717   -0.108491     0.0000    0.0000    0.3822   2858.8341
    5.2571     2.8424    -1.477    0.814115    0.000000    0.020961   -1.030366   -0.108587     0.0000    0.0000    0.3782   2129.3863
    6.1271     2.6466    -1.421    0.834349    0.000000    0.020660   -1.239006   -0.108680     0.0000    0.0000    0.3750   1542.0358
    6.9554     2.4603    -1.380    0.851384    0.000000    0.020487   -1.470459   -0.108687     0.0000    0.0000    0.3723   1081.2506
    7.7361     2.2847    -1.364    0.864887    0.000000    0.020569   -1.723042   -0.108527     0.0000    0.0000    0.3701   730.1792
    8.4639     2.1210    -1.381    0.874152    0.000000    0.021054   -1.992432   -0.108096     0.0000    0.0000    0.3682   471.5464
    9.1339     1.9702    -1.445    0.877949    0.000000    0.022127   -2.270085   -0.107234     0.0000    0.0000    0.3667   288.4240
    9.7416     1.8336    -1.573    0.874279    0.000000    0.023993   -2.541115   -0.105652     0.0000    0.0000    0.3654   164.8607
   10.2827     1.7118    -1.788    0.860071    0.000000    0.026834   -2.781154   -0.102896     0.0000    0.0000    0.3643   86.3672
   10.7535     1.6059    -2.116    0.830873    0.000000    0.030687   -2.953579   -0.098281     0.0000    0.0000    0.3631   40.2674
   11.1509     1.5165    -2.587    0.780851    0.000000    0.035277   -3.009416   -0.091013     0.0000    0.0000    0.3616   15.9315
   11.4722     1.4442    -3.252    0.703470    0.000000    0.039966   -2.895706   -0.080741     0.0000    0.0000    0.3601    4.9122
   11.7150     1.3896    -4.205    0.592642    0.000000    0.043571   -2.580538   -0.068661     0.0000    0.0000    0.3607    0.9866
   11.8778     1.3530    -5.526    0.444389    0.000000    0.042991   -2.113503   -0.061012     0.0000    0.0000    0.3759    0.0764
   11.9595     1.3346    -7.509    0.271149    0.000000    0.035745   -1.469990   -0.031130     0.0000    0.0000    0.3424    0.0000


Main Wing Cp Coefficients
 Panel     CtrlPt.x        CtrlPt.y        CtrlPt.z       Nx      Ny       Nz        Area       Cp
Main WingCp Coefficients
Strip 1
  13       6.885e+00      -1.195e+01       5.045e-01          -0.063          -0.062          -0.996       7.953e-04         -0.5257
  14       6.847e+00      -1.195e+01       5.108e-01          -0.196          -0.093          -0.976       2.384e-03         -0.4578
  15       6.773e+00      -1.195e+01       5.183e-01          -0.039          -0.054          -0.998       3.742e-03         -0.3546
  16       6.667e+00      -1.195e+01       5.126e-01           0.122          -0.011          -0.992       4.967e-03         -0.2102
  17       6.536e+00      -1.195e+01       4.900e-01           0.209           0.015          -0.978       5.972e-03         -0.1269
  18       6.386e+00      -1.195e+01       4.600e-01           0.185           0.007          -0.983       6.516e-03         -0.1460
  19       6.228e+00      -1.195e+01       4.382e-01           0.089          -0.026          -0.996       6.616e-03         -0.1680
  20       6.069e+00      -1.195e+01       4.302e-01           0.010          -0.055          -0.998       6.398e-03         -0.1476
  21       5.920e+00      -1.195e+01       4.326e-01          -0.045          -0.077          -0.996       5.843e-03         -0.1185
  22       5.789e+00      -1.195e+01       4.418e-01          -0.099          -0.099          -0.990       4.963e-03         -0.0847
  23       5.683e+00      -1.195e+01       4.560e-01          -0.178          -0.132          -0.975       3.818e-03         -0.0213
  24       5.608e+00      -1.195e+01       4.760e-01          -0.374          -0.217          -0.902       2.566e-03          0.1942
  25       5.570e+00      -1.195e+01       5.047e-01          -0.805          -0.394          -0.443       1.726e-03          0.5342
  26       5.570e+00      -1.195e+01       5.385e-01          -0.804          -0.353           0.478       1.715e-03         -0.5787
  27       5.608e+00      -1.195e+01       5.671e-01          -0.376          -0.139           0.916       2.567e-03         -1.2989
  28       5.683e+00      -1.195e+01       5.873e-01          -0.180          -0.048           0.983       3.814e-03         -0.7590
  29       5.789e+00      -1.194e+01       6.016e-01          -0.097          -0.011           0.995       4.953e-03         -0.5072
  30       5.920e+00      -1.194e+01       6.106e-01          -0.044           0.011           0.999       5.832e-03         -0.4057
  31       6.069e+00      -1.194e+01       6.139e-01          -0.003           0.027           1.000       6.386e-03         -0.3540
  32       6.228e+00      -1.194e+01       6.113e-01           0.036           0.041           0.999       6.580e-03         -0.3264
  33       6.386e+00      -1.194e+01       6.022e-01           0.079           0.056           0.995       6.406e-03         -0.3194
  34       6.536e+00      -1.195e+01       5.866e-01           0.132           0.072           0.989       5.878e-03         -0.3469
  35       6.667e+00      -1.195e+01       5.654e-01           0.190           0.088           0.978       5.021e-03         -0.4460
  36       6.773e+00      -1.195e+01       5.423e-01           0.243           0.102           0.965       3.862e-03         -0.6043
  37       6.847e+00      -1.195e+01       5.225e-01           0.281           0.111           0.953       2.438e-03         -0.7308
  38       6.885e+00      -1.195e+01       5.090e-01           0.465           0.152           0.872       9.040e-04         -0.5774
Strip 2
  39       6.866e+00      -1.187e+01       5.007e-01          -0.063          -0.062          -0.996       2.413e-03         -0.2176
  40       6.827e+00      -1.187e+01       5.071e-01          -0.196          -0.093          -0.976       7.233e-03         -0.0718
  41       6.752e+00      -1.187e+01       5.147e-01          -0.039          -0.054          -0.998       1.136e-02          0.0338
  42       6.644e+00      -1.187e+01       5.090e-01           0.122          -0.011          -0.992       1.507e-02          0.0747
  43       6.511e+00      -1.187e+01       4.860e-01           0.209           0.015          -0.978       1.812e-02          0.0306
  44       6.360e+00      -1.187e+01       4.556e-01           0.185           0.007          -0.983       1.977e-02         -0.0913
  45       6.199e+00      -1.187e+01       4.334e-01           0.089          -0.026          -0.996       2.007e-02         -0.1669
  46       6.038e+00      -1.187e+01       4.253e-01           0.010          -0.055          -0.998       1.941e-02         -0.1532
  47       5.887e+00      -1.187e+01       4.278e-01          -0.045          -0.077          -0.996       1.773e-02         -0.1130
  48       5.754e+00      -1.187e+01       4.371e-01          -0.099          -0.099          -0.990       1.506e-02         -0.0596
  49       5.646e+00      -1.187e+01       4.516e-01          -0.178          -0.132          -0.975       1.159e-02          0.0372
  50       5.571e+00      -1.187e+01       4.718e-01          -0.374          -0.217          -0.902       7.787e-03          0.3192
  51       5.532e+00      -1.187e+01       5.009e-01          -0.805          -0.394          -0.443       5.239e-03          0.6128
  52       5.532e+00      -1.187e+01       5.352e-01          -0.804          -0.353           0.478       5.203e-03         -0.8385
  53       5.571e+00      -1.186e+01       5.642e-01          -0.377          -0.139           0.916       7.787e-03         -1.6415
  54       5.646e+00      -1.186e+01       5.847e-01          -0.180          -0.048           0.983       1.157e-02         -0.9753
  55       5.754e+00      -1.186e+01       5.991e-01          -0.097          -0.011           0.995       1.503e-02         -0.6407
  56       5.887e+00      -1.186e+01       6.082e-01          -0.044           0.011           0.999       1.769e-02         -0.4904
  57       6.038e+00      -1.186e+01       6.116e-01          -0.003           0.027           1.000       1.938e-02         -0.4151
  58       6.199e+00      -1.186e+01       6.089e-01           0.036           0.041           0.999       1.997e-02         -0.3793
  59       6.360e+00      -1.186e+01       5.998e-01           0.079           0.056           0.995       1.944e-02         -0.3696
  60       6.511e+00      -1.186e+01       5.839e-01           0.132           0.072           0.989       1.784e-02         -0.3774
  61       6.644e+00      -1.186e+01       5.625e-01           0.190           0.088           0.978       1.524e-02         -0.4010
  62       6.752e+00      -1.187e+01       5.391e-01           0.243           0.102           0.965       1.172e-02         -0.4117
  63       6.827e+00      -1.187e+01       5.189e-01           0.281           0.111           0.953       7.400e-03         -0.4156
  64       6.866e+00      -1.187e+01       5.053e-01           0.465           0.152           0.872       2.743e-03         -0.2143
Strip 3
  65       6.826e+00      -1.170e+01       4.931e-01          -0.063          -0.062          -0.996       4.112e-03          0.0396
  66       6.787e+00      -1.170e+01       4.997e-01          -0.196          -0.093          -0.976       1.233e-02          0.2185
  67       6.709e+00      -1.170e+01       5.075e-01          -0.039          -0.054          -0.998       1.935e-02          0.2988
  68       6.599e+00      -1.170e+01       5.016e-01           0.122          -0.011          -0.992       2.568e-02          0.2579
  69       6.462e+00      -1.171e+01       4.780e-01           0.209           0.015          -0.978       3.088e-02          0.1347
  70       6.307e+00      -1.171e+01       4.468e-01           0.185           0.007          -0.983       3.369e-02         -0.0393
  71       6.142e+00      -1.171e+01       4.240e-01           0.089          -0.026          -0.996       3.420e-02         -0.1431
  72       5.977e+00      -1.171e+01       4.157e-01           0.010          -0.055          -0.998       3.308e-02         -0.1313
  73       5.821e+00      -1.171e+01       4.182e-01          -0.045          -0.077          -0.996       3.021e-02         -0.0725
  74       5.684e+00      -1.171e+01       4.278e-01          -0.099          -0.099          -0.990       2.567e-02          0.0169
  75       5.574e+00      -1.171e+01       4.427e-01          -0.178          -0.132          -0.975       1.975e-02          0.1629
  76       5.497e+00      -1.171e+01       4.635e-01          -0.374          -0.217          -0.902       1.327e-02          0.4857
  77       5.457e+00      -1.170e+01       4.933e-01          -0.805          -0.394          -0.444       8.930e-03          0.6786
  78       5.457e+00      -1.170e+01       5.285e-01          -0.804          -0.354           0.478       8.863e-03         -1.0523
  79       5.497e+00      -1.170e+01       5.584e-01          -0.377          -0.139           0.916       1.327e-02         -1.9095
  80       5.574e+00      -1.170e+01       5.794e-01          -0.180          -0.048           0.983       1.972e-02         -1.1684
  81       5.684e+00      -1.170e+01       5.942e-01          -0.097          -0.011           0.995       2.561e-02         -0.7922
  82       5.821e+00      -1.170e+01       6.036e-01          -0.044           0.011           0.999       3.015e-02         -0.6047
  83       5.977e+00      -1.170e+01       6.071e-01          -0.003           0.027           1.000       3.302e-02         -0.4985
  84       6.142e+00      -1.170e+01       6.043e-01           0.036           0.041           0.999       3.402e-02         -0.4389
  85       6.307e+00      -1.170e+01       5.949e-01           0.079           0.056           0.995       3.312e-02         -0.4004
  86       6.462e+00      -1.170e+01       5.786e-01           0.132           0.072           0.989       3.040e-02         -0.3542
  87       6.599e+00      -1.170e+01       5.566e-01           0.190           0.088           0.978       2.597e-02         -0.2883
  88       6.709e+00      -1.170e+01       5.325e-01           0.243           0.102           0.965       1.997e-02         -0.1931
  89       6.787e+00      -1.170e+01       5.119e-01           0.281           0.111           0.953       1.261e-02         -0.1177
  90       6.826e+00      -1.170e+01       4.978e-01           0.465           0.152           0.872       4.675e-03          0.0990
Strip 4
  91       6.768e+00      -1.146e+01       4.818e-01          -0.063          -0.062          -0.996       5.943e-03          0.0943
  92       6.726e+00      -1.146e+01       4.886e-01          -0.196          -0.093          -0.976       1.782e-02          0.2844
  93       6.646e+00      -1.146e+01       4.967e-01          -0.039          -0.054          -0.998       2.796e-02          0.3690
  94       6.531e+00      -1.146e+01       4.906e-01           0.122          -0.011          -0.992       3.711e-02          0.3218
  95       6.389e+00      -1.146e+01       4.661e-01           0.209           0.015          -0.978       4.461e-02          0.1865
  96       6.228e+00      -1.146e+01       4.337e-01           0.185           0.007          -0.983       4.868e-02         -0.0001
  97       6.056e+00      -1.146e+01       4.100e-01           0.089          -0.026          -0.996       4.942e-02         -0.1107
  98       5.884e+00      -1.147e+01       4.014e-01           0.010          -0.055          -0.998       4.781e-02         -0.0947
  99       5.723e+00      -1.146e+01       4.040e-01          -0.045          -0.077          -0.996       4.366e-02         -0.0220
 100       5.581e+00      -1.146e+01       4.139e-01          -0.099          -0.099          -0.990       3.709e-02          0.0843
 101       5.466e+00      -1.146e+01       4.294e-01          -0.178          -0.132          -0.975       2.854e-02          0.2434
 102       5.386e+00      -1.146e+01       4.510e-01          -0.374          -0.217          -0.902       1.919e-02          0.5672
 103       5.344e+00      -1.146e+01       4.820e-01          -0.805          -0.394          -0.444       1.291e-02          0.6601
 104       5.344e+00      -1.146e+01       5.186e-01          -0.805          -0.354           0.477       1.280e-02         -1.2434
 105       5.386e+00      -1.146e+01       5.496e-01          -0.377          -0.139           0.916       1.916e-02         -2.1039
 106       5.466e+00      -1.146e+01       5.715e-01          -0.180          -0.048           0.983       2.849e-02         -1.2972
 107       5.581e+00      -1.146e+01       5.869e-01          -0.097          -0.011           0.995       3.700e-02         -0.8996
 108       5.723e+00      -1.146e+01       5.966e-01          -0.044           0.011           0.999       4.357e-02         -0.7012
 109       5.884e+00      -1.146e+01       6.003e-01          -0.003           0.027           1.000       4.771e-02         -0.5814
 110       6.056e+00      -1.146e+01       5.974e-01           0.036           0.041           0.999       4.917e-02         -0.5053
 111       6.228e+00      -1.146e+01       5.876e-01           0.079           0.056           0.995       4.787e-02         -0.4479
 112       6.389e+00      -1.146e+01       5.706e-01           0.132           0.072           0.989       4.393e-02         -0.3794
 113       6.531e+00      -1.146e+01       5.478e-01           0.190           0.088           0.978       3.753e-02         -0.2881
 114       6.646e+00      -1.146e+01       5.228e-01           0.243           0.102           0.965       2.886e-02         -0.1671
 115       6.726e+00      -1.146e+01       5.013e-01           0.281           0.111           0.953       1.823e-02         -0.0701
 116       6.768e+00      -1.146e+01       4.867e-01           0.465           0.152           0.872       6.758e-03          0.1491
Strip 5
 117       6.690e+00      -1.114e+01       4.669e-01          -0.063          -0.062          -0.996       7.950e-03          0.1117
 118       6.647e+00      -1.114e+01       4.740e-01          -0.196          -0.093          -0.976       2.383e-02          0.3075
 119       6.562e+00      -1.114e+01       4.826e-01          -0.039          -0.054          -0.998       3.741e-02          0.3960
 120       6.442e+00      -1.114e+01       4.761e-01           0.123          -0.011          -0.992       4.964e-02          0.3497
 121       6.293e+00      -1.114e+01       4.504e-01           0.209           0.015          -0.978       5.967e-02          0.2140
 122       6.123e+00      -1.114e+01       4.163e-01           0.185           0.007          -0.983       6.510e-02          0.0278
 123       5.943e+00      -1.114e+01       3.915e-01           0.089          -0.026          -0.996       6.611e-02         -0.0805
 124       5.763e+00      -1.114e+01       3.824e-01           0.010          -0.055          -0.998       6.395e-02         -0.0600
 125       5.593e+00      -1.114e+01       3.851e-01          -0.045          -0.077          -0.996       5.841e-02          0.0179
 126       5.444e+00      -1.114e+01       3.956e-01          -0.099          -0.099          -0.990       4.963e-02          0.1283
 127       5.323e+00      -1.114e+01       4.118e-01          -0.177          -0.132          -0.975       3.819e-02          0.2907
 128       5.239e+00      -1.114e+01       4.345e-01          -0.374          -0.217          -0.902       2.568e-02          0.6116
 129       5.196e+00      -1.114e+01       4.671e-01          -0.804          -0.394          -0.445       1.728e-02          0.6319
 130       5.196e+00      -1.114e+01       5.055e-01          -0.805          -0.354           0.476       1.712e-02         -1.3891
 131       5.239e+00      -1.114e+01       5.381e-01          -0.377          -0.139           0.916       2.562e-02         -2.2440
 132       5.323e+00      -1.114e+01       5.610e-01          -0.180          -0.048           0.983       3.810e-02         -1.3845
 133       5.444e+00      -1.114e+01       5.772e-01          -0.097          -0.011           0.995       4.950e-02         -0.9702
 134       5.593e+00      -1.114e+01       5.874e-01          -0.044           0.011           0.999       5.828e-02         -0.7664
 135       5.763e+00      -1.114e+01       5.913e-01          -0.003           0.027           1.000       6.382e-02         -0.6423
 136       5.943e+00      -1.114e+01       5.882e-01           0.036           0.041           0.999       6.578e-02         -0.5595
 137       6.123e+00      -1.114e+01       5.779e-01           0.079           0.056           0.995       6.404e-02         -0.4924
 138       6.293e+00      -1.114e+01       5.602e-01           0.132           0.072           0.989       5.877e-02         -0.4115
 139       6.442e+00      -1.114e+01       5.362e-01           0.190           0.088           0.978       5.021e-02         -0.3057
 140       6.562e+00      -1.114e+01       5.099e-01           0.243           0.102           0.965       3.862e-02         -0.1712
 141       6.647e+00      -1.114e+01       4.873e-01           0.281           0.111           0.953       2.439e-02         -0.0634
 142       6.690e+00      -1.114e+01       4.720e-01           0.465           0.152           0.872       9.043e-03          0.1577
Strip 6
 143       6.594e+00      -1.074e+01       4.484e-01          -0.063          -0.062          -0.996       1.017e-02          0.1185
 144       6.548e+00      -1.074e+01       4.560e-01          -0.196          -0.093          -0.976       3.050e-02          0.3178
 145       6.459e+00      -1.074e+01       4.650e-01          -0.039          -0.054          -0.998       4.787e-02          0.4092
 146       6.331e+00      -1.074e+01       4.582e-01           0.123          -0.011          -0.992       6.350e-02          0.3646
 147       6.173e+00      -1.074e+01       4.309e-01           0.209           0.015          -0.978       7.632e-02          0.2307
 148       5.993e+00      -1.075e+01       3.949e-01           0.185           0.007          -0.983       8.328e-02          0.0472
 149       5.803e+00      -1.075e+01       3.685e-01           0.089          -0.026          -0.996       8.457e-02         -0.0580
 150       5.612e+00      -1.075e+01       3.589e-01           0.010          -0.055          -0.998       8.182e-02         -0.0352
 151       5.432e+00      -1.075e+01       3.618e-01          -0.045          -0.077          -0.996       7.474e-02          0.0441
 152       5.274e+00      -1.075e+01       3.729e-01          -0.099          -0.099          -0.990       6.350e-02          0.1552
 153       5.147e+00      -1.075e+01       3.901e-01          -0.177          -0.132          -0.975       4.887e-02          0.3187
 154       5.057e+00      -1.075e+01       4.141e-01          -0.373          -0.217          -0.902       3.287e-02          0.6366
 155       5.011e+00      -1.074e+01       4.486e-01          -0.804          -0.393          -0.446       2.212e-02          0.6096
 156       5.011e+00      -1.074e+01       4.893e-01          -0.805          -0.354           0.475       2.189e-02         -1.4868
 157       5.057e+00      -1.074e+01       5.238e-01          -0.377          -0.140           0.916       3.277e-02         -2.3366
 158       5.147e+00      -1.074e+01       5.481e-01          -0.180          -0.048           0.983       4.874e-02         -1.4404
 159       5.274e+00      -1.074e+01       5.652e-01          -0.097          -0.011           0.995       6.332e-02         -1.0142
 160       5.432e+00      -1.074e+01       5.761e-01          -0.044           0.011           0.999       7.456e-02         -0.8066
 161       5.612e+00      -1.074e+01       5.801e-01          -0.003           0.027           1.000       8.166e-02         -0.6807
 162       5.803e+00      -1.074e+01       5.769e-01           0.036           0.041           0.999       8.416e-02         -0.5951
 163       5.993e+00      -1.074e+01       5.660e-01           0.079           0.056           0.995       8.194e-02         -0.5234
 164       6.173e+00      -1.074e+01       5.472e-01           0.132           0.072           0.989       7.520e-02         -0.4356
 165       6.331e+00      -1.074e+01       5.218e-01           0.190           0.088           0.978       6.425e-02         -0.3214
 166       6.459e+00      -1.074e+01       4.939e-01           0.243           0.102           0.965       4.942e-02         -0.1792
 167       6.548e+00      -1.074e+01       4.701e-01           0.281           0.111           0.953       3.121e-02         -0.0652
 168       6.594e+00      -1.074e+01       4.538e-01           0.465           0.152           0.872       1.157e-02          0.1573
Strip 7
 169       6.480e+00      -1.027e+01       4.265e-01          -0.063          -0.062          -0.996       1.264e-02          0.1221
 170       6.431e+00      -1.027e+01       4.346e-01          -0.196          -0.093          -0.976       3.790e-02          0.3234
 171       6.336e+00      -1.027e+01       4.442e-01          -0.039          -0.054          -0.998       5.947e-02          0.4166
 172       6.200e+00      -1.027e+01       4.369e-01           0.123          -0.011          -0.992       7.889e-02          0.3734
 173       6.032e+00      -1.027e+01       4.079e-01           0.209           0.015          -0.978       9.480e-02          0.2411
 174       5.840e+00      -1.028e+01       3.694e-01           0.185           0.007          -0.983       1.034e-01          0.0595
 175       5.637e+00      -1.028e+01       3.413e-01           0.089          -0.026          -0.996       1.051e-01         -0.0437
 176       5.433e+00      -1.028e+01       3.311e-01           0.010          -0.055          -0.998       1.017e-01         -0.0200
 177       5.242e+00      -1.028e+01       3.342e-01          -0.045          -0.077          -0.996       9.286e-02          0.0595
 178       5.073e+00      -1.028e+01       3.460e-01          -0.099          -0.099          -0.990       7.891e-02          0.1703
 179       4.937e+00      -1.028e+01       3.643e-01          -0.177          -0.132          -0.975       6.073e-02          0.3337
 180       4.842e+00      -1.027e+01       3.899e-01          -0.373          -0.217          -0.902       4.086e-02          0.6495
 181       4.793e+00      -1.027e+01       4.267e-01          -0.803          -0.393          -0.447       2.749e-02          0.5972
 182       4.793e+00      -1.027e+01       4.701e-01          -0.806          -0.354           0.474       2.718e-02         -1.5407
 183       4.842e+00      -1.027e+01       5.069e-01          -0.377          -0.140           0.915       4.069e-02         -2.3888
 184       4.937e+00      -1.027e+01       5.328e-01          -0.180          -0.048           0.983       6.054e-02         -1.4720
 185       5.073e+00      -1.027e+01       5.511e-01          -0.097          -0.011           0.995       7.865e-02         -1.0391
 186       5.242e+00      -1.027e+01       5.626e-01          -0.044           0.011           0.999       9.263e-02         -0.8294
 187       5.433e+00      -1.027e+01       5.669e-01          -0.003           0.027           1.000       1.015e-01         -0.7026
 188       5.637e+00      -1.027e+01       5.635e-01           0.036           0.041           0.999       1.046e-01         -0.6159
 189       5.840e+00      -1.027e+01       5.519e-01           0.079           0.056           0.995       1.018e-01         -0.5419
 190       6.032e+00      -1.027e+01       5.318e-01           0.132           0.072           0.989       9.344e-02         -0.4504
 191       6.200e+00      -1.027e+01       5.047e-01           0.190           0.088           0.978       7.984e-02         -0.3317
 192       6.336e+00      -1.027e+01       4.750e-01           0.243           0.102           0.965       6.141e-02         -0.1852
 193       6.431e+00      -1.027e+01       4.496e-01           0.281           0.111           0.953       3.878e-02         -0.0675
 194       6.480e+00      -1.027e+01       4.323e-01           0.464           0.152           0.872       1.438e-02          0.1559
Strip 8
 195       6.349e+00      -9.733e+00       4.013e-01          -0.063          -0.062          -0.996       1.537e-02          0.1240
 196       6.297e+00      -9.733e+00       4.100e-01          -0.196          -0.093          -0.976       4.609e-02          0.3266
 197       6.195e+00      -9.732e+00       4.203e-01          -0.039          -0.054          -0.998       7.231e-02          0.4210
 198       6.050e+00      -9.733e+00       4.125e-01           0.123          -0.011          -0.992       9.590e-02          0.3785
 199       5.869e+00      -9.733e+00       3.814e-01           0.209           0.015          -0.978       1.152e-01          0.2471
 200       5.664e+00      -9.734e+00       3.402e-01           0.185           0.007          -0.983       1.258e-01          0.0665
 201       5.446e+00      -9.735e+00       3.101e-01           0.089          -0.026          -0.996       1.277e-01         -0.0359
 202       5.228e+00      -9.736e+00       2.991e-01           0.010          -0.055          -0.998       1.236e-01         -0.0120
 203       5.023e+00      -9.735e+00       3.024e-01          -0.045          -0.077          -0.996       1.129e-01          0.0670
 204       4.843e+00      -9.735e+00       3.151e-01          -0.099          -0.099          -0.990       9.595e-02          0.1771
 205       4.697e+00      -9.735e+00       3.347e-01          -0.177          -0.132          -0.975       7.386e-02          0.3400
 206       4.595e+00      -9.734e+00       3.622e-01          -0.373          -0.217          -0.902       4.970e-02          0.6542
 207       4.543e+00      -9.733e+00       4.016e-01          -0.803          -0.393          -0.448       3.345e-02          0.5945
 208       4.543e+00      -9.732e+00       4.481e-01          -0.806          -0.355           0.473       3.303e-02         -1.5579
 209       4.595e+00      -9.731e+00       4.874e-01          -0.378          -0.140           0.915       4.944e-02         -2.4083
 210       4.697e+00      -9.730e+00       5.152e-01          -0.180          -0.048           0.983       7.359e-02         -1.4847
 211       4.843e+00      -9.729e+00       5.348e-01          -0.097          -0.011           0.995       9.562e-02         -1.0501
 212       5.023e+00      -9.729e+00       5.472e-01          -0.044           0.011           0.999       1.126e-01         -0.8402
 213       5.228e+00      -9.729e+00       5.518e-01          -0.003           0.027           1.000       1.234e-01         -0.7135
 214       5.446e+00      -9.729e+00       5.481e-01           0.036           0.041           0.999       1.271e-01         -0.6265
 215       5.664e+00      -9.729e+00       5.357e-01           0.079           0.056           0.995       1.238e-01         -0.5516
 216       5.869e+00      -9.730e+00       5.141e-01           0.132           0.072           0.989       1.136e-01         -0.4583
 217       6.050e+00      -9.731e+00       4.851e-01           0.190           0.088           0.978       9.709e-02         -0.3373
 218       6.195e+00      -9.732e+00       4.533e-01           0.243           0.102           0.965       7.468e-02         -0.1886
 219       6.297e+00      -9.732e+00       4.261e-01           0.280           0.111           0.953       4.716e-02         -0.0690
 220       6.349e+00      -9.733e+00       4.075e-01           0.464           0.152           0.872       1.749e-02          0.1547
Strip 9
 221       6.203e+00      -9.126e+00       3.730e-01          -0.063          -0.062          -0.996       1.837e-02          0.1252
 222       6.146e+00      -9.126e+00       3.823e-01          -0.196          -0.093          -0.976       5.509e-02          0.3285
 223       6.037e+00      -9.125e+00       3.934e-01          -0.039          -0.054          -0.998       8.643e-02          0.4234
 224       5.880e+00      -9.126e+00       3.851e-01           0.123          -0.011          -0.992       1.146e-01          0.3815
 225       5.686e+00      -9.126e+00       3.516e-01           0.209           0.015          -0.978       1.377e-01          0.2503
 226       5.466e+00      -9.127e+00       3.074e-01           0.185           0.007          -0.983       1.503e-01          0.0698
 227       5.232e+00      -9.128e+00       2.750e-01           0.089          -0.026          -0.996       1.526e-01         -0.0327
 228       4.998e+00      -9.128e+00       2.632e-01           0.010          -0.055          -0.998       1.477e-01         -0.0092
 229       4.777e+00      -9.128e+00       2.668e-01          -0.045          -0.077          -0.996       1.350e-01          0.0691
 230       4.583e+00      -9.128e+00       2.804e-01          -0.099          -0.099          -0.990       1.147e-01          0.1782
 231       4.427e+00      -9.127e+00       3.014e-01          -0.177          -0.132          -0.975       8.830e-02          0.3397
 232       4.317e+00      -9.127e+00       3.310e-01          -0.373          -0.217          -0.902       5.943e-02          0.6531
 233       4.261e+00      -9.126e+00       3.733e-01          -0.802          -0.393          -0.449       4.000e-02          0.5999
 234       4.261e+00      -9.125e+00       4.233e-01          -0.807          -0.355           0.472       3.945e-02         -1.5460
 235       4.317e+00      -9.124e+00       4.656e-01          -0.378          -0.140           0.915       5.906e-02         -2.4021
 236       4.427e+00      -9.123e+00       4.954e-01          -0.180          -0.048           0.983       8.793e-02         -1.4833
 237       4.583e+00      -9.123e+00       5.165e-01          -0.097          -0.011           0.995       1.143e-01         -1.0511
 238       4.777e+00      -9.122e+00       5.298e-01          -0.044           0.011           0.999       1.346e-01         -0.8428
 239       4.998e+00      -9.122e+00       5.347e-01          -0.003           0.027           1.000       1.474e-01         -0.7169
 240       5.232e+00      -9.122e+00       5.308e-01           0.036           0.041           0.999       1.520e-01         -0.6305
 241       5.466e+00      -9.123e+00       5.174e-01           0.079           0.056           0.995       1.480e-01         -0.5556
 242       5.686e+00      -9.123e+00       4.943e-01           0.132           0.072           0.989       1.358e-01         -0.4616
 243       5.880e+00      -9.124e+00       4.631e-01           0.190           0.088           0.978       1.161e-01         -0.3397
 244       6.037e+00      -9.125e+00       4.289e-01           0.243           0.102           0.965       8.928e-02         -0.1902
 245       6.146e+00      -9.125e+00       3.996e-01           0.280           0.111           0.953       5.638e-02         -0.0697
 246       6.203e+00      -9.126e+00       3.797e-01           0.464           0.152           0.873       2.091e-02          0.1541
Strip 10
 247       6.041e+00      -8.456e+00       3.418e-01          -0.063          -0.062          -0.996       2.163e-02          0.1257
 248       5.980e+00      -8.456e+00       3.519e-01          -0.196          -0.093          -0.976       6.489e-02          0.3295
 249       5.862e+00      -8.456e+00       3.638e-01          -0.039          -0.054          -0.998       1.018e-01          0.4249
 250       5.694e+00      -8.456e+00       3.548e-01           0.123          -0.011          -0.992       1.350e-01          0.3830
 251       5.485e+00      -8.457e+00       3.188e-01           0.209           0.015          -0.978       1.622e-01          0.2517
 252       5.248e+00      -8.458e+00       2.712e-01           0.185           0.007          -0.983       1.769e-01          0.0707
 253       4.996e+00      -8.458e+00       2.363e-01           0.089          -0.026          -0.996       1.798e-01         -0.0327
 254       4.744e+00      -8.459e+00       2.236e-01           0.010          -0.055          -0.998       1.740e-01         -0.0099
 255       4.506e+00      -8.459e+00       2.274e-01          -0.045          -0.077          -0.996       1.590e-01          0.0674
 256       4.298e+00      -8.458e+00       2.421e-01          -0.099          -0.099          -0.990       1.351e-01          0.1750
 257       4.129e+00      -8.458e+00       2.648e-01          -0.177          -0.132          -0.975       1.040e-01          0.3346
 258       4.011e+00      -8.457e+00       2.966e-01          -0.373          -0.217          -0.902       7.003e-02          0.6474
 259       3.951e+00      -8.456e+00       3.422e-01          -0.802          -0.393          -0.450       4.714e-02          0.6114
 260       3.951e+00      -8.455e+00       3.960e-01          -0.807          -0.355           0.471       4.644e-02         -1.5118
 261       4.011e+00      -8.454e+00       4.415e-01          -0.378          -0.140           0.915       6.953e-02         -2.3767
 262       4.129e+00      -8.454e+00       4.736e-01          -0.180          -0.048           0.982       1.035e-01         -1.4713
 263       4.298e+00      -8.453e+00       4.963e-01          -0.097          -0.011           0.995       1.346e-01         -1.0448
 264       4.506e+00      -8.453e+00       5.106e-01          -0.044           0.011           0.999       1.585e-01         -0.8393
 265       4.744e+00      -8.453e+00       5.160e-01          -0.003           0.027           1.000       1.736e-01         -0.7153
 266       4.996e+00      -8.453e+00       5.117e-01           0.036           0.041           0.999       1.790e-01         -0.6301
 267       5.248e+00      -8.453e+00       4.973e-01           0.079           0.056           0.995       1.743e-01         -0.5557
 268       5.485e+00      -8.454e+00       4.724e-01           0.132           0.072           0.989       1.600e-01         -0.4620
 269       5.694e+00      -8.455e+00       4.388e-01           0.190           0.088           0.978       1.367e-01         -0.3401
 270       5.862e+00      -8.455e+00       4.021e-01           0.243           0.102           0.965       1.052e-01         -0.1904
 271       5.980e+00      -8.456e+00       3.705e-01           0.280           0.111           0.953       6.641e-02         -0.0698
 272       6.041e+00      -8.456e+00       3.490e-01           0.464           0.152           0.873       2.464e-02          0.1536
Strip 11
 273       5.865e+00      -7.729e+00       3.080e-01          -0.063          -0.062          -0.996       2.515e-02          0.1258
 274       5.800e+00      -7.729e+00       3.188e-01          -0.196          -0.093          -0.976       7.545e-02          0.3300
 275       5.672e+00      -7.729e+00       3.316e-01          -0.039          -0.054          -0.998       1.183e-01          0.4256
 276       5.491e+00      -7.729e+00       3.220e-01           0.123          -0.011          -0.992       1.569e-01          0.3837
 277       5.266e+00      -7.730e+00       2.832e-01           0.209           0.015          -0.978       1.885e-01          0.2518
 278       5.011e+00      -7.730e+00       2.318e-01           0.185           0.007          -0.983       2.057e-01          0.0697
 279       4.739e+00      -7.731e+00       1.943e-01           0.089          -0.026          -0.996       2.089e-01         -0.0348
 280       4.468e+00      -7.731e+00       1.806e-01           0.010          -0.055          -0.998       2.022e-01         -0.0133
 281       4.212e+00      -7.731e+00       1.847e-01          -0.045          -0.077          -0.996       1.848e-01          0.0627
 282       3.987e+00      -7.731e+00       2.005e-01          -0.099          -0.099          -0.990       1.571e-01          0.1686
 283       3.806e+00      -7.731e+00       2.250e-01          -0.177          -0.132          -0.975       1.210e-01          0.3257
 284       3.679e+00      -7.730e+00       2.592e-01          -0.372          -0.217          -0.902       8.145e-02          0.6381
 285       3.613e+00      -7.729e+00       3.084e-01          -0.802          -0.393          -0.451       5.482e-02          0.6273
 286       3.613e+00      -7.728e+00       3.663e-01          -0.808          -0.355           0.470       5.396e-02         -1.4601
 287       3.679e+00      -7.727e+00       4.154e-01          -0.378          -0.140           0.915       8.079e-02         -2.3357
 288       3.806e+00      -7.727e+00       4.499e-01          -0.180          -0.048           0.982       1.203e-01         -1.4508
 289       3.987e+00      -7.726e+00       4.744e-01          -0.097          -0.011           0.995       1.564e-01         -1.0328
 290       4.212e+00      -7.726e+00       4.898e-01          -0.044           0.011           0.999       1.843e-01         -0.8315
 291       4.468e+00      -7.726e+00       4.956e-01          -0.003           0.027           1.000       2.018e-01         -0.7101
 292       4.739e+00      -7.726e+00       4.910e-01           0.036           0.041           0.999       2.081e-01         -0.6265
 293       5.011e+00      -7.726e+00       4.755e-01           0.079           0.056           0.995       2.026e-01         -0.5533
 294       5.266e+00      -7.727e+00       4.487e-01           0.132           0.072           0.989       1.860e-01         -0.4604
 295       5.491e+00      -7.727e+00       4.125e-01           0.190           0.088           0.978       1.589e-01         -0.3390
 296       5.672e+00      -7.728e+00       3.729e-01           0.243           0.102           0.965       1.223e-01         -0.1898
 297       5.800e+00      -7.729e+00       3.389e-01           0.280           0.111           0.953       7.722e-02         -0.0696
 298       5.865e+00      -7.729e+00       3.157e-01           0.464           0.152           0.873       2.865e-02          0.1533
Strip 12
 299       5.676e+00      -6.949e+00       2.717e-01          -0.063          -0.062          -0.996       2.889e-02          0.1258
 300       5.606e+00      -6.949e+00       2.833e-01          -0.196          -0.093          -0.976       8.666e-02          0.3302
 301       5.469e+00      -6.949e+00       2.971e-01          -0.039          -0.054          -0.998       1.359e-01          0.4259
 302       5.274e+00      -6.949e+00       2.867e-01           0.123          -0.011          -0.992       1.802e-01          0.3838
 303       5.032e+00      -6.950e+00       2.449e-01           0.209           0.015          -0.978       2.164e-01          0.2512
 304       4.756e+00      -6.950e+00       1.896e-01           0.185           0.007          -0.983       2.362e-01          0.0675
 305       4.464e+00      -6.951e+00       1.492e-01           0.089          -0.026          -0.996       2.400e-01         -0.0387
 306       4.172e+00      -6.951e+00       1.345e-01           0.010          -0.055          -0.998       2.323e-01         -0.0185
 307       3.896e+00      -6.951e+00       1.389e-01          -0.045          -0.077          -0.996       2.123e-01          0.0559
 308       3.654e+00      -6.951e+00       1.559e-01          -0.099          -0.099          -0.990       1.804e-01          0.1597
 309       3.459e+00      -6.950e+00       1.822e-01          -0.177          -0.132          -0.975       1.389e-01          0.3138
 310       3.322e+00      -6.950e+00       2.191e-01          -0.372          -0.217          -0.903       9.358e-02          0.6255
 311       3.252e+00      -6.949e+00       2.721e-01          -0.801          -0.393          -0.452       6.299e-02          0.6464
 312       3.252e+00      -6.948e+00       3.345e-01          -0.808          -0.356           0.470       6.195e-02         -1.3940
 313       3.322e+00      -6.948e+00       3.873e-01          -0.378          -0.140           0.915       9.275e-02         -2.2815
 314       3.459e+00      -6.947e+00       4.246e-01          -0.180          -0.048           0.982       1.382e-01         -1.4238
 315       3.654e+00      -6.947e+00       4.508e-01          -0.097          -0.011           0.995       1.796e-01         -1.0164
 316       3.896e+00      -6.946e+00       4.675e-01          -0.044           0.011           0.999       2.116e-01         -0.8204
 317       4.172e+00      -6.946e+00       4.737e-01          -0.003           0.027           1.000       2.318e-01         -0.7021
 318       4.464e+00      -6.946e+00       4.688e-01           0.036           0.041           0.999       2.390e-01         -0.6207
 319       4.756e+00      -6.947e+00       4.521e-01           0.079           0.056           0.995       2.327e-01         -0.5491
 320       5.032e+00      -6.947e+00       4.232e-01           0.132           0.072           0.989       2.137e-01         -0.4573
 321       5.274e+00      -6.948e+00       3.842e-01           0.189           0.088           0.978       1.826e-01         -0.3369
 322       5.469e+00      -6.948e+00       3.415e-01           0.243           0.102           0.965       1.405e-01         -0.1886
 323       5.606e+00      -6.949e+00       3.049e-01           0.280           0.111           0.953       8.870e-02         -0.0691
 324       5.676e+00      -6.949e+00       2.800e-01           0.464           0.152           0.873       3.292e-02          0.1531
Strip 13
 325       5.476e+00      -6.122e+00       2.331e-01          -0.063          -0.062          -0.996       3.280e-02          0.1255
 326       5.400e+00      -6.122e+00       2.457e-01          -0.196          -0.093          -0.976       9.842e-02          0.3301
 327       5.253e+00      -6.121e+00       2.605e-01          -0.039          -0.054          -0.998       1.543e-01          0.4259
 328       5.043e+00      -6.122e+00       2.494e-01           0.123          -0.011          -0.992       2.046e-01          0.3835
 329       4.783e+00      -6.122e+00       2.044e-01           0.209           0.015          -0.978       2.457e-01          0.2499
 330       4.486e+00      -6.123e+00       1.449e-01           0.185           0.007          -0.983       2.681e-01          0.0644
 331       4.172e+00      -6.123e+00       1.014e-01           0.089          -0.026          -0.996       2.724e-01         -0.0439
 332       3.858e+00      -6.123e+00       8.556e-02           0.010          -0.055          -0.998       2.637e-01         -0.0255
 333       3.562e+00      -6.123e+00       9.031e-02          -0.045          -0.077          -0.996       2.410e-01          0.0472
 334       3.301e+00      -6.123e+00       1.086e-01          -0.099          -0.099          -0.990       2.049e-01          0.1485
 335       3.091e+00      -6.123e+00       1.369e-01          -0.177          -0.132          -0.975       1.578e-01          0.2990
 336       2.944e+00      -6.122e+00       1.766e-01          -0.372          -0.217          -0.903       1.063e-01          0.6096
 337       2.868e+00      -6.122e+00       2.336e-01          -0.801          -0.392          -0.453       7.156e-02          0.6675
 338       2.868e+00      -6.121e+00       3.007e-01          -0.808          -0.356           0.469       7.031e-02         -1.3161
 339       2.944e+00      -6.120e+00       3.576e-01          -0.378          -0.140           0.915       1.053e-01         -2.2165
 340       3.091e+00      -6.120e+00       3.976e-01          -0.180          -0.048           0.982       1.569e-01         -1.3908
 341       3.301e+00      -6.120e+00       4.259e-01          -0.097          -0.012           0.995       2.039e-01         -0.9963
 342       3.562e+00      -6.119e+00       4.438e-01          -0.044           0.011           0.999       2.403e-01         -0.8065
 343       3.858e+00      -6.119e+00       4.505e-01          -0.003           0.027           1.000       2.632e-01         -0.6920
 344       4.172e+00      -6.119e+00       4.452e-01           0.036           0.041           0.999       2.714e-01         -0.6132
 345       4.486e+00      -6.120e+00       4.272e-01           0.079           0.056           0.995       2.643e-01         -0.5434
 346       4.783e+00      -6.120e+00       3.961e-01           0.132           0.072           0.989       2.426e-01         -0.4532
 347       5.043e+00      -6.120e+00       3.542e-01           0.189           0.088           0.978       2.073e-01         -0.3342
 348       5.253e+00      -6.121e+00       3.083e-01           0.243           0.102           0.965       1.595e-01         -0.1871
 349       5.400e+00      -6.121e+00       2.689e-01           0.280           0.111           0.953       1.007e-01         -0.0685
 350       5.476e+00      -6.122e+00       2.421e-01           0.464           0.152           0.873       3.738e-02          0.1527
Strip 14
 351       5.266e+00      -5.252e+00       1.926e-01          -0.063          -0.062          -0.996       3.684e-02          0.1249
 352       5.185e+00      -5.252e+00       2.061e-01          -0.196          -0.093          -0.976       1.105e-01          0.3298
 353       5.027e+00      -5.252e+00       2.221e-01          -0.039          -0.054          -0.998       1.733e-01          0.4256
 354       4.801e+00      -5.252e+00       2.101e-01           0.123          -0.011          -0.992       2.297e-01          0.3829
 355       4.521e+00      -5.253e+00       1.618e-01           0.209           0.015          -0.978       2.759e-01          0.2481
 356       4.203e+00      -5.253e+00       9.787e-02           0.186           0.007          -0.983       3.011e-01          0.0604
 357       3.865e+00      -5.254e+00       5.118e-02           0.089          -0.026          -0.996       3.060e-01         -0.0503
 358       3.528e+00      -5.254e+00       3.415e-02           0.010          -0.055          -0.998       2.962e-01         -0.0338
 359       3.210e+00      -5.254e+00       3.926e-02          -0.045          -0.077          -0.996       2.707e-01          0.0367
 360       2.930e+00      -5.254e+00       5.889e-02          -0.099          -0.099          -0.990       2.301e-01          0.1353
 361       2.704e+00      -5.253e+00       8.932e-02          -0.177          -0.132          -0.975       1.773e-01          0.2815
 362       2.546e+00      -5.253e+00       1.319e-01          -0.372          -0.216          -0.903       1.194e-01          0.5904
 363       2.465e+00      -5.252e+00       1.931e-01          -0.800          -0.392          -0.453       8.040e-02          0.6900
 364       2.465e+00      -5.252e+00       2.652e-01          -0.809          -0.356           0.468       7.894e-02         -1.2269
 365       2.546e+00      -5.251e+00       3.263e-01          -0.379          -0.140           0.915       1.182e-01         -2.1407
 366       2.704e+00      -5.251e+00       3.693e-01          -0.180          -0.048           0.982       1.761e-01         -1.3523
 367       2.930e+00      -5.251e+00       3.997e-01          -0.097          -0.012           0.995       2.290e-01         -0.9726
 368       3.210e+00      -5.250e+00       4.189e-01          -0.044           0.011           0.999       2.698e-01         -0.7900
 369       3.528e+00      -5.250e+00       4.261e-01          -0.003           0.027           1.000       2.956e-01         -0.6799
 370       3.865e+00      -5.250e+00       4.204e-01           0.036           0.041           0.999       3.048e-01         -0.6041
 371       4.203e+00      -5.251e+00       4.011e-01           0.079           0.056           0.995       2.969e-01         -0.5367
 372       4.521e+00      -5.251e+00       3.677e-01           0.132           0.072           0.989       2.725e-01         -0.4483
 373       4.801e+00      -5.251e+00       3.227e-01           0.189           0.088           0.978       2.329e-01         -0.3309
 374       5.027e+00      -5.252e+00       2.734e-01           0.243           0.102           0.965       1.792e-01         -0.1853
 375       5.185e+00      -5.252e+00       2.311e-01           0.280           0.111           0.954       1.132e-01         -0.0680
 376       5.266e+00      -5.252e+00       2.023e-01           0.464           0.152           0.873       4.200e-02          0.1522
Strip 15
 377       5.047e+00      -4.347e+00       1.505e-01          -0.063          -0.062          -0.996       4.094e-02          0.1242
 378       4.960e+00      -4.347e+00       1.649e-01          -0.196          -0.093          -0.976       1.229e-01          0.3294
 379       4.790e+00      -4.347e+00       1.821e-01          -0.039          -0.054          -0.998       1.926e-01          0.4252
 380       4.549e+00      -4.347e+00       1.692e-01           0.123          -0.011          -0.992       2.553e-01          0.3820
 381       4.249e+00      -4.347e+00       1.174e-01           0.209           0.015          -0.978       3.066e-01          0.2459
 382       3.908e+00      -4.348e+00       4.891e-02           0.186           0.007          -0.983       3.346e-01          0.0557
 383       3.546e+00      -4.348e+00      -1.130e-03           0.089          -0.026          -0.996       3.400e-01         -0.0578
 384       3.184e+00      -4.348e+00      -1.938e-02           0.010          -0.055          -0.998       3.292e-01         -0.0436
 385       2.843e+00      -4.348e+00      -1.391e-02          -0.045          -0.077          -0.996       3.009e-01          0.0246
 386       2.543e+00      -4.348e+00       7.138e-03          -0.099          -0.099          -0.990       2.558e-01          0.1199
 387       2.302e+00      -4.348e+00       3.975e-02          -0.177          -0.132          -0.975       1.970e-01          0.2610
 388       2.132e+00      -4.348e+00       8.544e-02          -0.372          -0.216          -0.903       1.328e-01          0.5671
 389       2.045e+00      -4.347e+00       1.510e-01          -0.800          -0.392          -0.454       8.938e-02          0.7134
 390       2.045e+00      -4.347e+00       2.283e-01          -0.809          -0.356           0.468       8.770e-02         -1.1265
 391       2.132e+00      -4.346e+00       2.937e-01          -0.379          -0.140           0.915       1.313e-01         -2.0537
 392       2.302e+00      -4.346e+00       3.399e-01          -0.180          -0.048           0.982       1.957e-01         -1.3078
 393       2.543e+00      -4.346e+00       3.724e-01          -0.097          -0.012           0.995       2.545e-01         -0.9450
 394       2.843e+00      -4.346e+00       3.930e-01          -0.044           0.011           0.999       2.999e-01         -0.7709
 395       3.184e+00      -4.346e+00       4.007e-01          -0.003           0.027           1.000       3.285e-01         -0.6660
 396       3.546e+00      -4.346e+00       3.946e-01           0.036           0.041           0.999       3.387e-01         -0.5937
 397       3.908e+00      -4.346e+00       3.739e-01           0.079           0.056           0.995       3.299e-01         -0.5290
 398       4.249e+00      -4.346e+00       3.381e-01           0.132           0.072           0.989       3.029e-01         -0.4429
 399       4.549e+00      -4.346e+00       2.899e-01           0.189           0.088           0.978       2.589e-01         -0.3274
 400       4.790e+00      -4.347e+00       2.370e-01           0.243           0.102           0.965       1.992e-01         -0.1834
 401       4.960e+00      -4.347e+00       1.917e-01           0.280           0.111           0.954       1.258e-01         -0.0675
 402       5.047e+00      -4.347e+00       1.608e-01           0.463           0.152           0.873       4.668e-02          0.1515
Strip 16
 403       4.821e+00      -3.412e+00       1.070e-01          -0.063          -0.062          -0.996       4.503e-02          0.1229
 404       4.728e+00      -3.412e+00       1.224e-01          -0.196          -0.093          -0.976       1.351e-01          0.3287
 405       4.547e+00      -3.412e+00       1.407e-01          -0.039          -0.054          -0.998       2.119e-01          0.4246
 406       4.288e+00      -3.412e+00       1.269e-01           0.123          -0.011          -0.992       2.808e-01          0.3809
 407       3.968e+00      -3.413e+00       7.156e-02           0.209           0.015          -0.978       3.372e-01          0.2432
 408       3.603e+00      -3.413e+00      -1.648e-03           0.186           0.007          -0.983       3.679e-01          0.0500
 409       3.216e+00      -3.413e+00      -5.515e-02           0.089          -0.026          -0.996       3.739e-01         -0.0666
 410       2.829e+00      -3.413e+00      -7.467e-02           0.010          -0.055          -0.998       3.620e-01         -0.0548
 411       2.465e+00      -3.413e+00      -6.881e-02          -0.045          -0.077          -0.996       3.309e-01          0.0108
 412       2.144e+00      -3.413e+00      -4.631e-02          -0.099          -0.099          -0.990       2.814e-01          0.1023
 413       1.886e+00      -3.413e+00      -1.144e-02          -0.177          -0.132          -0.975       2.167e-01          0.2374
 414       1.705e+00      -3.413e+00       3.740e-02          -0.372          -0.216          -0.903       1.461e-01          0.5390
 415       1.612e+00      -3.412e+00       1.075e-01          -0.800          -0.392          -0.454       9.834e-02          0.7372
 416       1.612e+00      -3.412e+00       1.901e-01          -0.809          -0.356           0.467       9.643e-02         -1.0125
 417       1.705e+00      -3.412e+00       2.601e-01          -0.379          -0.140           0.915       1.444e-01         -1.9525
 418       1.886e+00      -3.411e+00       3.094e-01          -0.180          -0.048           0.982       2.152e-01         -1.2554
 419       2.144e+00      -3.411e+00       3.442e-01          -0.097          -0.012           0.995       2.799e-01         -0.9129
 420       2.465e+00      -3.411e+00       3.663e-01          -0.044           0.011           0.999       3.298e-01         -0.7489
 421       2.829e+00      -3.411e+00       3.745e-01          -0.003           0.027           1.000       3.614e-01         -0.6502
 422       3.216e+00      -3.411e+00       3.680e-01           0.036           0.041           0.999       3.726e-01         -0.5824
 423       3.603e+00      -3.411e+00       3.458e-01           0.079           0.056           0.995       3.629e-01         -0.5209
 424       3.968e+00      -3.411e+00       3.076e-01           0.132           0.072           0.989       3.332e-01         -0.4374
 425       4.288e+00      -3.412e+00       2.560e-01           0.189           0.088           0.978       2.847e-01         -0.3240
 426       4.547e+00      -3.412e+00       1.995e-01           0.243           0.102           0.965       2.191e-01         -0.1818
 427       4.728e+00      -3.412e+00       1.510e-01           0.280           0.111           0.954       1.384e-01         -0.0674
 428       4.821e+00      -3.412e+00       1.180e-01           0.463           0.152           0.873       5.135e-02          0.1502
Strip 17
 429       4.589e+00      -2.454e+00       6.235e-02          -0.063          -0.062          -0.996       4.904e-02          0.1211
 430       4.490e+00      -2.454e+00       7.880e-02          -0.196          -0.093          -0.976       1.472e-01          0.3276
 431       4.297e+00      -2.454e+00       9.833e-02          -0.039          -0.054          -0.998       2.307e-01          0.4237
 432       4.021e+00      -2.454e+00       8.364e-02           0.123          -0.011          -0.992       3.057e-01          0.3794
 433       3.679e+00      -2.454e+00       2.459e-02           0.209           0.015          -0.978       3.671e-01          0.2398
 434       3.291e+00      -2.455e+00      -5.347e-02           0.186           0.007          -0.983       4.006e-01          0.0433
 435       2.878e+00      -2.455e+00      -1.105e-01           0.089          -0.026          -0.996       4.071e-01         -0.0766
 436       2.466e+00      -2.455e+00      -1.313e-01           0.010          -0.055          -0.998       3.942e-01         -0.0672
 437       2.077e+00      -2.455e+00      -1.251e-01          -0.045          -0.077          -0.996       3.603e-01         -0.0044
 438       1.735e+00      -2.455e+00      -1.011e-01          -0.099          -0.099          -0.990       3.064e-01          0.0828
 439       1.460e+00      -2.455e+00      -6.391e-02          -0.177          -0.132          -0.975       2.360e-01          0.2102
 440       1.267e+00      -2.454e+00      -1.183e-02          -0.372          -0.216          -0.903       1.591e-01          0.5048
 441       1.167e+00      -2.454e+00       6.292e-02          -0.800          -0.392          -0.455       1.071e-01          0.7615
 442       1.167e+00      -2.454e+00       1.510e-01          -0.809          -0.356           0.467       1.050e-01         -0.8793
 443       1.267e+00      -2.454e+00       2.257e-01          -0.379          -0.140           0.915       1.572e-01         -1.8302
 444       1.460e+00      -2.453e+00       2.782e-01          -0.180          -0.048           0.982       2.343e-01         -1.1915
 445       1.735e+00      -2.453e+00       3.154e-01          -0.097          -0.012           0.995       3.047e-01         -0.8738
 446       2.077e+00      -2.453e+00       3.389e-01          -0.044           0.011           0.999       3.591e-01         -0.7228
 447       2.466e+00      -2.453e+00       3.476e-01          -0.003           0.027           1.000       3.935e-01         -0.6326
 448       2.878e+00      -2.453e+00       3.407e-01           0.036           0.041           0.999       4.057e-01         -0.5708
 449       3.291e+00      -2.453e+00       3.171e-01           0.079           0.056           0.995       3.951e-01         -0.5136
 450       3.679e+00      -2.453e+00       2.763e-01           0.132           0.072           0.989       3.628e-01         -0.4332
 451       4.021e+00      -2.454e+00       2.213e-01           0.189           0.088           0.978       3.101e-01         -0.3219
 452       4.297e+00      -2.454e+00       1.610e-01           0.243           0.102           0.965       2.386e-01         -0.1814
 453       4.490e+00      -2.454e+00       1.093e-01           0.280           0.111           0.954       1.507e-01         -0.0684
 454       4.589e+00      -2.454e+00       7.413e-02           0.463           0.152           0.873       5.592e-02          0.1480
Strip 18
 455       4.353e+00      -1.479e+00       1.695e-02          -0.063          -0.062          -0.996       5.286e-02          0.1183
 456       4.248e+00      -1.479e+00       3.444e-02          -0.195          -0.093          -0.976       1.587e-01          0.3257
 457       4.042e+00      -1.479e+00       5.520e-02          -0.039          -0.054          -0.998       2.487e-01          0.4220
 458       3.750e+00      -1.479e+00       3.959e-02           0.123          -0.011          -0.992       3.295e-01          0.3766
 459       3.386e+00      -1.479e+00      -2.320e-02           0.209           0.015          -0.978       3.957e-01          0.2343
 460       2.973e+00      -1.479e+00      -1.062e-01           0.186           0.007          -0.983       4.318e-01          0.0340
 461       2.534e+00      -1.480e+00      -1.669e-01           0.089          -0.026          -0.996       4.389e-01         -0.0883
 462       2.096e+00      -1.480e+00      -1.890e-01           0.010          -0.055          -0.998       4.249e-01         -0.0798
 463       1.683e+00      -1.480e+00      -1.824e-01          -0.045          -0.077          -0.996       3.884e-01         -0.0187
 464       1.319e+00      -1.480e+00      -1.568e-01          -0.099          -0.099          -0.990       3.303e-01          0.0639
 465       1.026e+00      -1.480e+00      -1.173e-01          -0.177          -0.132          -0.975       2.544e-01          0.1814
 466       8.209e-01      -1.479e+00      -6.192e-02          -0.372          -0.216          -0.903       1.715e-01          0.4640
 467       7.152e-01      -1.479e+00       1.756e-02          -0.799          -0.392          -0.455       1.155e-01          0.7888
 468       7.152e-01      -1.479e+00       1.112e-01          -0.810          -0.356           0.466       1.131e-01         -0.7112
 469       8.209e-01      -1.479e+00       1.906e-01          -0.379          -0.140           0.915       1.694e-01         -1.6672
 470       1.026e+00      -1.479e+00       2.465e-01          -0.180          -0.048           0.982       2.526e-01         -1.1044
 471       1.319e+00      -1.479e+00       2.860e-01          -0.097          -0.012           0.995       3.285e-01         -0.8213
 472       1.683e+00      -1.479e+00       3.110e-01          -0.044           0.011           0.999       3.871e-01         -0.6898
 473       2.096e+00      -1.479e+00       3.203e-01          -0.003           0.027           1.000       4.241e-01         -0.6131
 474       2.534e+00      -1.479e+00       3.129e-01           0.036           0.041           0.999       4.373e-01         -0.5609
 475       2.973e+00      -1.479e+00       2.878e-01           0.079           0.056           0.995       4.260e-01         -0.5105
 476       3.386e+00      -1.479e+00       2.444e-01           0.132           0.072           0.989       3.911e-01         -0.4340
 477       3.750e+00      -1.479e+00       1.859e-01           0.189           0.088           0.978       3.343e-01         -0.3244
 478       4.042e+00      -1.479e+00       1.218e-01           0.243           0.102           0.965       2.572e-01         -0.1843
 479       4.248e+00      -1.479e+00       6.687e-02           0.280           0.111           0.954       1.624e-01         -0.0720
 480       4.353e+00      -1.479e+00       2.948e-02           0.463           0.152           0.873       6.029e-02          0.1437
Strip 19
 481       4.115e+00      -4.942e-01      -2.892e-02          -0.063          -0.062          -0.996       5.642e-02          0.1145
 482       4.003e+00      -4.942e-01      -1.038e-02          -0.195          -0.093          -0.976       1.694e-01          0.3235
 483       3.786e+00      -4.942e-01       1.164e-02          -0.039          -0.054          -0.998       2.655e-01          0.4187
 484       3.475e+00      -4.942e-01      -4.920e-03           0.123          -0.011          -0.992       3.517e-01          0.3674
 485       3.090e+00      -4.942e-01      -7.148e-02           0.209           0.015          -0.978       4.223e-01          0.2167
 486       2.652e+00      -4.943e-01      -1.595e-01           0.186           0.007          -0.983       4.608e-01          0.0128
 487       2.187e+00      -4.943e-01      -2.238e-01           0.089          -0.026          -0.996       4.684e-01         -0.1030
 488       1.722e+00      -4.943e-01      -2.472e-01           0.010          -0.055          -0.998       4.536e-01         -0.0840
 489       1.284e+00      -4.943e-01      -2.402e-01          -0.045          -0.077          -0.996       4.146e-01         -0.0163
 490       8.987e-01      -4.943e-01      -2.132e-01          -0.099          -0.099          -0.990       3.525e-01          0.0652
 491       5.881e-01      -4.943e-01      -1.712e-01          -0.177          -0.132          -0.975       2.716e-01          0.1698
 492       3.705e-01      -4.943e-01      -1.125e-01          -0.371          -0.216          -0.903       1.831e-01          0.4211
 493       2.584e-01      -4.942e-01      -2.827e-02          -0.799          -0.392          -0.456       1.233e-01          0.8148
 494       2.584e-01      -4.941e-01       7.104e-02          -0.810          -0.357           0.466       1.207e-01         -0.4457
 495       3.705e-01      -4.941e-01       1.552e-01          -0.379          -0.140           0.915       1.808e-01         -1.3695
 496       5.881e-01      -4.941e-01       2.144e-01          -0.180          -0.048           0.982       2.695e-01         -0.9363
 497       8.987e-01      -4.940e-01       2.563e-01          -0.097          -0.012           0.995       3.506e-01         -0.7326
 498       1.284e+00      -4.940e-01       2.828e-01          -0.044           0.011           0.999       4.131e-01         -0.6417
 499       1.722e+00      -4.940e-01       2.926e-01          -0.003           0.027           1.000       4.527e-01         -0.5916
 500       2.187e+00      -4.940e-01       2.848e-01           0.036           0.041           0.999       4.668e-01         -0.5593
 501       2.652e+00      -4.940e-01       2.582e-01           0.079           0.056           0.995       4.547e-01         -0.5236
 502       3.090e+00      -4.941e-01       2.122e-01           0.132           0.072           0.989       4.175e-01         -0.4552
 503       3.475e+00      -4.941e-01       1.502e-01           0.189           0.088           0.978       3.568e-01         -0.3456
 504       3.786e+00      -4.941e-01       8.228e-02           0.243           0.102           0.965       2.745e-01         -0.2010
 505       4.003e+00      -4.942e-01       2.400e-02           0.280           0.111           0.954       1.734e-01         -0.0835
 506       4.115e+00      -4.942e-01      -1.564e-02           0.463           0.152           0.873       6.436e-02          0.1347
Strip 20
 507       4.115e+00       4.942e-01      -2.892e-02          -0.063           0.062          -0.996       5.642e-02          0.1145
 508       4.003e+00       4.942e-01      -1.038e-02          -0.195           0.093          -0.976       1.694e-01          0.3235
 509       3.786e+00       4.942e-01       1.164e-02          -0.039           0.054          -0.998       2.655e-01          0.4187
 510       3.475e+00       4.942e-01      -4.920e-03           0.123           0.011          -0.992       3.517e-01          0.3674
 511       3.090e+00       4.942e-01      -7.148e-02           0.209          -0.015          -0.978       4.223e-01          0.2167
 512       2.652e+00       4.943e-01      -1.595e-01           0.186          -0.007          -0.983       4.608e-01          0.0128
 513       2.187e+00       4.943e-01      -2.238e-01           0.089           0.026          -0.996       4.684e-01         -0.1030
 514       1.722e+00       4.943e-01      -2.472e-01           0.010           0.055          -0.998       4.536e-01         -0.0840
 515       1.284e+00       4.943e-01      -2.402e-01          -0.045           0.077          -0.996       4.146e-01         -0.0163
 516       8.987e-01       4.943e-01      -2.132e-01          -0.099           0.099          -0.990       3.525e-01          0.0652
 517       5.881e-01       4.943e-01      -1.712e-01          -0.177           0.132          -0.975       2.716e-01          0.1698
 518       3.705e-01       4.943e-01      -1.125e-01          -0.371           0.216          -0.903       1.831e-01          0.4211
 519       2.584e-01       4.942e-01      -2.827e-02          -0.799           0.392          -0.456       1.233e-01          0.8148
 520       2.584e-01       4.941e-01       7.104e-02          -0.810           0.357           0.466       1.207e-01         -0.4457
 521       3.705e-01       4.941e-01       1.552e-01          -0.379           0.140           0.915       1.808e-01         -1.3695
 522       5.881e-01       4.941e-01       2.144e-01          -0.180           0.048           0.982       2.695e-01         -0.9363
 523       8.987e-01       4.940e-01       2.563e-01          -0.097           0.012           0.995       3.506e-01         -0.7326
 524       1.284e+00       4.940e-01       2.828e-01          -0.044          -0.011           0.999       4.131e-01         -0.6417
 525       1.722e+00       4.940e-01       2.926e-01          -0.003          -0.027           1.000       4.527e-01         -0.5916
 526       2.187e+00       4.940e-01       2.848e-01           0.036          -0.041           0.999       4.668e-01         -0.5593
 527       2.652e+00       4.940e-01       2.582e-01           0.079          -0.056           0.995       4.547e-01         -0.5236
 528       3.090e+00       4.941e-01       2.122e-01           0.132          -0.072           0.989       4.175e-01         -0.4552
 529       3.475e+00       4.941e-01       1.502e-01           0.189          -0.088           0.978       3.568e-01         -0.3456
 530       3.786e+00       4.941e-01       8.228e-02           0.243          -0.102           0.965       2.745e-01         -0.2010
 531       4.003e+00       4.942e-01       2.400e-02           0.280          -0.111           0.954       1.734e-01         -0.0835
 532       4.115e+00       4.942e-01      -1.564e-02           0.463          -0.152           0.873       6.436e-02          0.1347
Strip 21
 533       4.353e+00       1.479e+00       1.695e-02          -0.063           0.062          -0.996       5.286e-02          0.1183
 534       4.248e+00       1.479e+00       3.444e-02          -0.195           0.093          -0.976       1.587e-01          0.3257
 535       4.042e+00       1.479e+00       5.520e-02          -0.039           0.054          -0.998       2.487e-01          0.4220
 536       3.750e+00       1.479e+00       3.959e-02           0.123           0.011          -0.992       3.295e-01          0.3766
 537       3.386e+00       1.479e+00      -2.320e-02           0.209          -0.015          -0.978       3.957e-01          0.2343
 538       2.973e+00       1.479e+00      -1.062e-01           0.186          -0.007          -0.983       4.318e-01          0.0340
 539       2.534e+00       1.480e+00      -1.669e-01           0.089           0.026          -0.996       4.389e-01         -0.0883
 540       2.096e+00       1.480e+00      -1.890e-01           0.010           0.055          -0.998       4.249e-01         -0.0798
 541       1.683e+00       1.480e+00      -1.824e-01          -0.045           0.077          -0.996       3.884e-01         -0.0187
 542       1.319e+00       1.480e+00      -1.568e-01          -0.099           0.099          -0.990       3.303e-01          0.0639
 543       1.026e+00       1.480e+00      -1.173e-01          -0.177           0.132          -0.975       2.544e-01          0.1814
 544       8.209e-01       1.479e+00      -6.192e-02          -0.372           0.216          -0.903       1.715e-01          0.4640
 545       7.152e-01       1.479e+00       1.756e-02          -0.799           0.392          -0.455       1.155e-01          0.7888
 546       7.152e-01       1.479e+00       1.112e-01          -0.810           0.356           0.466       1.131e-01         -0.7112
 547       8.209e-01       1.479e+00       1.906e-01          -0.379           0.140           0.915       1.694e-01         -1.6672
 548       1.026e+00       1.479e+00       2.465e-01          -0.180           0.048           0.982       2.526e-01         -1.1044
 549       1.319e+00       1.479e+00       2.860e-01          -0.097           0.012           0.995       3.285e-01         -0.8213
 550       1.683e+00       1.479e+00       3.110e-01          -0.044          -0.011           0.999       3.871e-01         -0.6898
 551       2.096e+00       1.479e+00       3.203e-01          -0.003          -0.027           1.000       4.241e-01         -0.6131
 552       2.534e+00       1.479e+00       3.129e-01           0.036          -0.041           0.999       4.373e-01         -0.5609
 553       2.973e+00       1.479e+00       2.878e-01           0.079          -0.056           0.995       4.260e-01         -0.5105
 554       3.386e+00       1.479e+00       2.444e-01           0.132          -0.072           0.989       3.911e-01         -0.4340
 555       3.750e+00       1.479e+00       1.859e-01           0.189          -0.088           0.978       3.343e-01         -0.3244
 556       4.042e+00       1.479e+00       1.218e-01           0.243          -0.102           0.965       2.572e-01         -0.1843
 557       4.248e+00       1.479e+00       6.687e-02           0.280          -0.111           0.954       1.624e-01         -0.0720
 558       4.353e+00       1.479e+00       2.948e-02           0.463          -0.152           0.873       6.029e-02          0.1437
Strip 22
 559       4.589e+00       2.454e+00       6.235e-02          -0.063           0.062          -0.996       4.904e-02          0.1211
 560       4.490e+00       2.454e+00       7.880e-02          -0.196           0.093          -0.976       1.472e-01          0.3276
 561       4.297e+00       2.454e+00       9.833e-02          -0.039           0.054          -0.998       2.307e-01          0.4237
 562       4.021e+00       2.454e+00       8.364e-02           0.123           0.011          -0.992       3.057e-01          0.3794
 563       3.679e+00       2.454e+00       2.459e-02           0.209          -0.015          -0.978       3.671e-01          0.2398
 564       3.291e+00       2.455e+00      -5.347e-02           0.186          -0.007          -0.983       4.006e-01          0.0433
 565       2.878e+00       2.455e+00      -1.105e-01           0.089           0.026          -0.996       4.071e-01         -0.0766
 566       2.466e+00       2.455e+00      -1.313e-01           0.010           0.055          -0.998       3.942e-01         -0.0672
 567       2.077e+00       2.455e+00      -1.251e-01          -0.045           0.077          -0.996       3.603e-01         -0.0044
 568       1.735e+00       2.455e+00      -1.011e-01          -0.099           0.099          -0.990       3.064e-01          0.0828
[...]
 852       5.612e+00       1.075e+01       3.589e-01           0.010           0.055          -0.998       8.182e-02         -0.0352
 853       5.432e+00       1.075e+01       3.618e-01          -0.045           0.077          -0.996       7.474e-02          0.0441
 854       5.274e+00       1.075e+01       3.729e-01          -0.099           0.099          -0.990       6.350e-02          0.1552
 855       5.147e+00       1.075e+01       3.901e-01          -0.177           0.132          -0.975       4.887e-02          0.3187
 856       5.057e+00       1.075e+01       4.141e-01          -0.373           0.217          -0.902       3.287e-02          0.6366
 857       5.011e+00       1.074e+01       4.486e-01          -0.804           0.393          -0.446       2.212e-02          0.6096
 858       5.011e+00       1.074e+01       4.893e-01          -0.805           0.354           0.475       2.189e-02         -1.4868
 859       5.057e+00       1.074e+01       5.238e-01          -0.377           0.140           0.916       3.277e-02         -2.3366
 860       5.147e+00       1.074e+01       5.481e-01          -0.180           0.048           0.983       4.874e-02         -1.4404
 861       5.274e+00       1.074e+01       5.652e-01          -0.097           0.011           0.995       6.332e-02         -1.0142
 862       5.432e+00       1.074e+01       5.761e-01          -0.044          -0.011           0.999       7.456e-02         -0.8066
 863       5.612e+00       1.074e+01       5.801e-01          -0.003          -0.027           1.000       8.166e-02         -0.6807
 864       5.803e+00       1.074e+01       5.769e-01           0.036          -0.041           0.999       8.416e-02         -0.5951
 865       5.993e+00       1.074e+01       5.660e-01           0.079          -0.056           0.995       8.194e-02         -0.5234
 866       6.173e+00       1.074e+01       5.472e-01           0.132          -0.072           0.989       7.520e-02         -0.4356
 867       6.331e+00       1.074e+01       5.218e-01           0.190          -0.088           0.978       6.425e-02         -0.3214
 868       6.459e+00       1.074e+01       4.939e-01           0.243          -0.102           0.965       4.942e-02         -0.1792
 869       6.548e+00       1.074e+01       4.701e-01           0.281          -0.111           0.953       3.121e-02         -0.0652
 870       6.594e+00       1.074e+01       4.538e-01           0.465          -0.152           0.872       1.157e-02          0.1573
Strip 34
 871       6.690e+00       1.114e+01       4.669e-01          -0.063           0.062          -0.996       7.950e-03          0.1117
 872       6.647e+00       1.114e+01       4.740e-01          -0.196           0.093          -0.976       2.383e-02          0.3075
 873       6.562e+00       1.114e+01       4.826e-01          -0.039           0.054          -0.998       3.741e-02          0.3960
 874       6.442e+00       1.114e+01       4.761e-01           0.123           0.011          -0.992       4.964e-02          0.3497
 875       6.293e+00       1.114e+01       4.504e-01           0.209          -0.015          -0.978       5.967e-02          0.2140
 876       6.123e+00       1.114e+01       4.163e-01           0.185          -0.007          -0.983       6.510e-02          0.0278
 877       5.943e+00       1.114e+01       3.915e-01           0.089           0.026          -0.996       6.611e-02         -0.0805
 878       5.763e+00       1.114e+01       3.824e-01           0.010           0.055          -0.998       6.395e-02         -0.0600
 879       5.593e+00       1.114e+01       3.851e-01          -0.045           0.077          -0.996       5.841e-02          0.0179
 880       5.444e+00       1.114e+01       3.956e-01          -0.099           0.099          -0.990       4.963e-02          0.1283
 881       5.323e+00       1.114e+01       4.118e-01          -0.177           0.132          -0.975       3.819e-02          0.2907
 882       5.239e+00       1.114e+01       4.345e-01          -0.374           0.217          -0.902       2.568e-02          0.6116
 883       5.196e+00       1.114e+01       4.671e-01          -0.804           0.394          -0.445       1.728e-02          0.6319
 884       5.196e+00       1.114e+01       5.055e-01          -0.805           0.354           0.476       1.712e-02         -1.3891
 885       5.239e+00       1.114e+01       5.381e-01          -0.377           0.139           0.916       2.562e-02         -2.2440
 886       5.323e+00       1.114e+01       5.610e-01          -0.180           0.048           0.983       3.810e-02         -1.3845
 887       5.444e+00       1.114e+01       5.772e-01          -0.097           0.011           0.995       4.950e-02         -0.9702
 888       5.593e+00       1.114e+01       5.874e-01          -0.044          -0.011           0.999       5.828e-02         -0.7664
 889       5.763e+00       1.114e+01       5.913e-01          -0.003          -0.027           1.000       6.382e-02         -0.6423
 890       5.943e+00       1.114e+01       5.882e-01           0.036          -0.041           0.999       6.578e-02         -0.5595
 891       6.123e+00       1.114e+01       5.779e-01           0.079          -0.056           0.995       6.404e-02         -0.4924
 892       6.293e+00       1.114e+01       5.602e-01           0.132          -0.072           0.989       5.877e-02         -0.4115
 893       6.442e+00       1.114e+01       5.362e-01           0.190          -0.088           0.978       5.021e-02         -0.3057
 894       6.562e+00       1.114e+01       5.099e-01           0.243          -0.102           0.965       3.862e-02         -0.1712
 895       6.647e+00       1.114e+01       4.873e-01           0.281          -0.111           0.953       2.439e-02         -0.0634
 896       6.690e+00       1.114e+01       4.720e-01           0.465          -0.152           0.872       9.043e-03          0.1577
Strip 35
 897       6.768e+00       1.146e+01       4.818e-01          -0.063           0.062          -0.996       5.943e-03          0.0943
 898       6.726e+00       1.146e+01       4.886e-01          -0.196           0.093          -0.976       1.782e-02          0.2844
 899       6.646e+00       1.146e+01       4.967e-01          -0.039           0.054          -0.998       2.796e-02          0.3690
 900       6.531e+00       1.146e+01       4.906e-01           0.122           0.011          -0.992       3.711e-02          0.3218
 901       6.389e+00       1.146e+01       4.661e-01           0.209          -0.015          -0.978       4.461e-02          0.1865
 902       6.228e+00       1.146e+01       4.337e-01           0.185          -0.007          -0.983       4.868e-02         -0.0001
 903       6.056e+00       1.146e+01       4.100e-01           0.089           0.026          -0.996       4.942e-02         -0.1107
 904       5.884e+00       1.147e+01       4.014e-01           0.010           0.055          -0.998       4.781e-02         -0.0947
 905       5.723e+00       1.146e+01       4.040e-01          -0.045           0.077          -0.996       4.366e-02         -0.0220
 906       5.581e+00       1.146e+01       4.139e-01          -0.099           0.099          -0.990       3.709e-02          0.0843
 907       5.466e+00       1.146e+01       4.294e-01          -0.178           0.132          -0.975       2.854e-02          0.2434
 908       5.386e+00       1.146e+01       4.510e-01          -0.374           0.217          -0.902       1.919e-02          0.5672
 909       5.344e+00       1.146e+01       4.820e-01          -0.805           0.394          -0.444       1.291e-02          0.6601
 910       5.344e+00       1.146e+01       5.186e-01          -0.805           0.354           0.477       1.280e-02         -1.2434
 911       5.386e+00       1.146e+01       5.496e-01          -0.377           0.139           0.916       1.916e-02         -2.1039
 912       5.466e+00       1.146e+01       5.715e-01          -0.180           0.048           0.983       2.849e-02         -1.2972
 913       5.581e+00       1.146e+01       5.869e-01          -0.097           0.011           0.995       3.700e-02         -0.8996
 914       5.723e+00       1.146e+01       5.966e-01          -0.044          -0.011           0.999       4.357e-02         -0.7012
 915       5.884e+00       1.146e+01       6.003e-01          -0.003          -0.027           1.000       4.771e-02         -0.5814
 916       6.056e+00       1.146e+01       5.974e-01           0.036          -0.041           0.999       4.917e-02         -0.5053
 917       6.228e+00       1.146e+01       5.876e-01           0.079          -0.056           0.995       4.787e-02         -0.4479
 918       6.389e+00       1.146e+01       5.706e-01           0.132          -0.072           0.989       4.393e-02         -0.3794
 919       6.531e+00       1.146e+01       5.478e-01           0.190          -0.088           0.978       3.753e-02         -0.2881
 920       6.646e+00       1.146e+01       5.228e-01           0.243          -0.102           0.965       2.886e-02         -0.1671
 921       6.726e+00       1.146e+01       5.013e-01           0.281          -0.111           0.953       1.823e-02         -0.0701
 922       6.768e+00       1.146e+01       4.867e-01           0.465          -0.152           0.872       6.758e-03          0.1491
Strip 36
 923       6.826e+00       1.170e+01       4.931e-01          -0.063           0.062          -0.996       4.112e-03          0.0396
 924       6.787e+00       1.170e+01       4.997e-01          -0.196           0.093          -0.976       1.233e-02          0.2185
 925       6.709e+00       1.170e+01       5.075e-01          -0.039           0.054          -0.998       1.935e-02          0.2988
 926       6.599e+00       1.170e+01       5.016e-01           0.122           0.011          -0.992       2.568e-02          0.2579
 927       6.462e+00       1.171e+01       4.780e-01           0.209          -0.015          -0.978       3.088e-02          0.1347
 928       6.307e+00       1.171e+01       4.468e-01           0.185          -0.007          -0.983       3.369e-02         -0.0393
 929       6.142e+00       1.171e+01       4.240e-01           0.089           0.026          -0.996       3.420e-02         -0.1431
 930       5.977e+00       1.171e+01       4.157e-01           0.010           0.055          -0.998       3.308e-02         -0.1313
 931       5.821e+00       1.171e+01       4.182e-01          -0.045           0.077          -0.996       3.021e-02         -0.0725
 932       5.684e+00       1.171e+01       4.278e-01          -0.099           0.099          -0.990       2.567e-02          0.0169
 933       5.574e+00       1.171e+01       4.427e-01          -0.178           0.132          -0.975       1.975e-02          0.1629
 934       5.497e+00       1.171e+01       4.635e-01          -0.374           0.217          -0.902       1.327e-02          0.4857
 935       5.457e+00       1.170e+01       4.933e-01          -0.805           0.394          -0.444       8.930e-03          0.6786
 936       5.457e+00       1.170e+01       5.285e-01          -0.804           0.354           0.478       8.863e-03         -1.0523
 937       5.497e+00       1.170e+01       5.584e-01          -0.377           0.139           0.916       1.327e-02         -1.9095
 938       5.574e+00       1.170e+01       5.794e-01          -0.180           0.048           0.983       1.972e-02         -1.1684
 939       5.684e+00       1.170e+01       5.942e-01          -0.097           0.011           0.995       2.561e-02         -0.7922
 940       5.821e+00       1.170e+01       6.036e-01          -0.044          -0.011           0.999       3.015e-02         -0.6047
 941       5.977e+00       1.170e+01       6.071e-01          -0.003          -0.027           1.000       3.302e-02         -0.4985
 942       6.142e+00       1.170e+01       6.043e-01           0.036          -0.041           0.999       3.402e-02         -0.4389
 943       6.307e+00       1.170e+01       5.949e-01           0.079          -0.056           0.995       3.312e-02         -0.4004
 944       6.462e+00       1.170e+01       5.786e-01           0.132          -0.072           0.989       3.040e-02         -0.3542
 945       6.599e+00       1.170e+01       5.566e-01           0.190          -0.088           0.978       2.597e-02         -0.2883
 946       6.709e+00       1.170e+01       5.325e-01           0.243          -0.102           0.965       1.997e-02         -0.1931
 947       6.787e+00       1.170e+01       5.119e-01           0.281          -0.111           0.953       1.261e-02         -0.1177
 948       6.826e+00       1.170e+01       4.978e-01           0.465          -0.152           0.872       4.675e-03          0.0990
Strip 37
 949       6.866e+00       1.187e+01       5.007e-01          -0.063           0.062          -0.996       2.413e-03         -0.2176
 950       6.827e+00       1.187e+01       5.071e-01          -0.196           0.093          -0.976       7.233e-03         -0.0718
 951       6.752e+00       1.187e+01       5.147e-01          -0.039           0.054          -0.998       1.136e-02          0.0338
 952       6.644e+00       1.187e+01       5.090e-01           0.122           0.011          -0.992       1.507e-02          0.0747
 953       6.511e+00       1.187e+01       4.860e-01           0.209          -0.015          -0.978       1.812e-02          0.0306
 954       6.360e+00       1.187e+01       4.556e-01           0.185          -0.007          -0.983       1.977e-02         -0.0913
 955       6.199e+00       1.187e+01       4.334e-01           0.089           0.026          -0.996       2.007e-02         -0.1669
 956       6.038e+00       1.187e+01       4.253e-01           0.010           0.055          -0.998       1.941e-02         -0.1532
 957       5.887e+00       1.187e+01       4.278e-01          -0.045           0.077          -0.996       1.773e-02         -0.1130
 958       5.754e+00       1.187e+01       4.371e-01          -0.099           0.099          -0.990       1.506e-02         -0.0596
 959       5.646e+00       1.187e+01       4.516e-01          -0.178           0.132          -0.975       1.159e-02          0.0372
 960       5.571e+00       1.187e+01       4.718e-01          -0.374           0.217          -0.902       7.787e-03          0.3192
 961       5.532e+00       1.187e+01       5.009e-01          -0.805           0.394          -0.443       5.239e-03          0.6128
 962       5.532e+00       1.187e+01       5.352e-01          -0.804           0.353           0.478       5.203e-03         -0.8385
 963       5.571e+00       1.186e+01       5.642e-01          -0.377           0.139           0.916       7.787e-03         -1.6415
 964       5.646e+00       1.186e+01       5.847e-01          -0.180           0.048           0.983       1.157e-02         -0.9753
 965       5.754e+00       1.186e+01       5.991e-01          -0.097           0.011           0.995       1.503e-02         -0.6407
 966       5.887e+00       1.186e+01       6.082e-01          -0.044          -0.011           0.999       1.769e-02         -0.4904
 967       6.038e+00       1.186e+01       6.116e-01          -0.003          -0.027           1.000       1.938e-02         -0.4151
 968       6.199e+00       1.186e+01       6.089e-01           0.036          -0.041           0.999       1.997e-02         -0.3793
 969       6.360e+00       1.186e+01       5.998e-01           0.079          -0.056           0.995       1.944e-02         -0.3696
 970       6.511e+00       1.186e+01       5.839e-01           0.132          -0.072           0.989       1.784e-02         -0.3774
 971       6.644e+00       1.186e+01       5.625e-01           0.190          -0.088           0.978       1.524e-02         -0.4010
 972       6.752e+00       1.187e+01       5.391e-01           0.243          -0.102           0.965       1.172e-02         -0.4117
 973       6.827e+00       1.187e+01       5.189e-01           0.281          -0.111           0.953       7.400e-03         -0.4156
 974       6.866e+00       1.187e+01       5.053e-01           0.465          -0.152           0.872       2.743e-03         -0.2143
Strip 38
 975       6.885e+00       1.195e+01       5.045e-01          -0.063           0.062          -0.996       7.953e-04         -0.5257
 976       6.847e+00       1.195e+01       5.108e-01          -0.196           0.093          -0.976       2.384e-03         -0.4578
 977       6.773e+00       1.195e+01       5.183e-01          -0.039           0.054          -0.998       3.742e-03         -0.3546
 978       6.667e+00       1.195e+01       5.126e-01           0.122           0.011          -0.992       4.967e-03         -0.2102
 979       6.536e+00       1.195e+01       4.900e-01           0.209          -0.015          -0.978       5.972e-03         -0.1269
 980       6.386e+00       1.195e+01       4.600e-01           0.185          -0.007          -0.983       6.516e-03         -0.1460
 981       6.228e+00       1.195e+01       4.382e-01           0.089           0.026          -0.996       6.616e-03         -0.1680
 982       6.069e+00       1.195e+01       4.302e-01           0.010           0.055          -0.998       6.398e-03         -0.1476
 983       5.920e+00       1.195e+01       4.326e-01          -0.045           0.077          -0.996       5.843e-03         -0.1185
 984       5.789e+00       1.195e+01       4.418e-01          -0.099           0.099          -0.990       4.963e-03         -0.0847
 985       5.683e+00       1.195e+01       4.560e-01          -0.178           0.132          -0.975       3.818e-03         -0.0213
 986       5.608e+00       1.195e+01       4.760e-01          -0.374           0.217          -0.902       2.566e-03          0.1942
 987       5.570e+00       1.195e+01       5.047e-01          -0.805           0.394          -0.443       1.726e-03          0.5342
 988       5.570e+00       1.195e+01       5.385e-01          -0.804           0.353           0.478       1.715e-03         -0.5787
 989       5.608e+00       1.195e+01       5.671e-01          -0.376           0.139           0.916       2.567e-03         -1.2989
 990       5.683e+00       1.195e+01       5.873e-01          -0.180           0.048           0.983       3.814e-03         -0.7590
 991       5.789e+00       1.194e+01       6.016e-01          -0.097           0.011           0.995       4.953e-03         -0.5072
 992       5.920e+00       1.194e+01       6.106e-01          -0.044          -0.011           0.999       5.832e-03         -0.4057
 993       6.069e+00       1.194e+01       6.139e-01          -0.003          -0.027           1.000       6.386e-03         -0.3540
 994       6.228e+00       1.194e+01       6.113e-01           0.036          -0.041           0.999       6.580e-03         -0.3264
 995       6.386e+00       1.194e+01       6.022e-01           0.079          -0.056           0.995       6.406e-03         -0.3194
 996       6.536e+00       1.195e+01       5.866e-01           0.132          -0.072           0.989       5.878e-03         -0.3469
 997       6.667e+00       1.195e+01       5.654e-01           0.190          -0.088           0.978       5.021e-03         -0.4460
 998       6.773e+00       1.195e+01       5.423e-01           0.243          -0.102           0.965       3.862e-03         -0.6043
 999       6.847e+00       1.195e+01       5.225e-01           0.281          -0.111           0.953       2.438e-03         -0.7308
1000       6.885e+00       1.195e+01       5.090e-01           0.465          -0.152           0.872       9.040e-04         -0.5774










