xflr5 v6.61

Plane Name
T1-10.0 m/s-Panel-0.0kg-x0.0m-Inviscid
QInf  =   10.000000 m/s
Alpha =    2.000000
Beta  =    0.000°
Phi   =    0.000°
Ctrl  =    0.000
CL    =    0.548029
Cy    =    0.000000
Cd    =    0.010572     ICd   =    0.010572     PCd   =    0.000000
Cl   = 8.00036e-16
Cm   =   -0.669528
ICn   =    0.000000     PCn   =    0.000000 
XCP   =    3.768689     YCP   =   -0.000000     ZCP   =    0.386419  
XNP   =    0.000000
Bending = 5081.712320

Main Wing
  y-span        Chord      Ai         Cl        PCd          ICd        CmGeom    CmAirf@chord/4    XTrtop    XTrBot      XCP       BM
  -11.9595     1.3346    -6.128    0.195079    0.000000    0.020948   -1.087986   -0.044306     0.0000    0.0000    0.4350    0.0000
  -11.8778     1.3530    -4.361    0.316953    0.000000    0.024174   -1.534988   -0.071574     0.0000    0.0000    0.4599    0.0550
  -11.7150     1.3896    -3.136    0.417120    0.000000    0.022858   -1.839541   -0.080972     0.0000    0.0000    0.4397    0.7051
  -11.4722     1.4442    -2.315    0.489691    0.000000    0.019796   -2.036623   -0.090900     0.0000    0.0000    0.4320    3.4823
  -11.1509     1.5165    -1.788    0.539527    0.000000    0.016842   -2.099727   -0.098401     0.0000    0.0000    0.4282   11.2120
  -10.7535     1.6059    -1.440    0.571490    0.000000    0.014360   -2.052388   -0.103417     0.0000    0.0000    0.4264   28.1703
  -10.2827     1.7118    -1.208    0.590028    0.000000    0.012438   -1.929812   -0.106505     0.0000    0.0000    0.4257   60.1393
   -9.7416     1.8336    -1.060    0.598914    0.000000    0.011081   -1.763959   -0.108316     0.0000    0.0000    0.4260   114.3829
   -9.1339     1.9702    -0.974    0.600987    0.000000    0.010212   -1.578616   -0.109339     0.0000    0.0000    0.4270   199.5599
   -8.4639     2.1210    -0.932    0.598210    0.000000    0.009724   -1.389629   -0.109886     0.0000    0.0000    0.4288   325.5691
   -7.7361     2.2847    -0.921    0.591858    0.000000    0.009513   -1.206682   -0.110146     0.0000    0.0000    0.4313   503.3135
   -6.9554     2.4603    -0.934    0.582723    0.000000    0.009493   -1.035343   -0.110227     0.0000    0.0000    0.4345   744.3720
   -6.1271     2.6466    -0.963    0.571259    0.000000    0.009594   -0.878405   -0.110194     0.0000    0.0000    0.4384   1060.5721
   -5.2571     2.8424    -1.003    0.557675    0.000000    0.009760   -0.736942   -0.110097     0.0000    0.0000    0.4431   1463.4665
   -4.3511     3.0462    -1.051    0.541983    0.000000    0.009934   -0.611020   -0.109982     0.0000    0.0000    0.4488   1963.7241
   -3.4154     3.2567    -1.100    0.524024    0.000000    0.010052   -0.500161   -0.109930     0.0000    0.0000    0.4560   2570.4507
   -2.4564     3.4724    -1.141    0.503445    0.000000    0.010022   -0.403748   -0.110118     0.0000    0.0000    0.4654   3290.4649
   -1.4806     3.6919    -1.152    0.479545    0.000000    0.009623   -0.321350   -0.110968     0.0000    0.0000    0.4787   4127.5546
   -0.4947     3.9137    -1.022    0.450228    0.000000    0.007978   -0.253743   -0.114105     0.0000    0.0000    0.5012   5081.7123
    0.4947     3.9137    -1.022    0.450228    0.000000    0.007978   -0.253743   -0.114105     0.0000    0.0000    0.5012   5081.7123
    1.4806     3.6919    -1.152    0.479545    0.000000    0.009623   -0.321350   -0.110968     0.0000    0.0000    0.4787   4127.5546
    2.4564     3.4724    -1.141    0.503445    0.000000    0.010022   -0.403748   -0.110118     0.0000    0.0000    0.4654   3290.4649
    3.4154     3.2567    -1.100    0.524024    0.000000    0.010052   -0.500161   -0.109930     0.0000    0.0000    0.4560   2570.4507
    4.3511     3.0462    -1.051    0.541983    0.000000    0.009934   -0.611020   -0.109982     0.0000    0.0000    0.4488   1963.7241
    5.2571     2.8424    -1.003    0.557675    0.000000    0.009760   -0.736942   -0.110097     0.0000    0.0000    0.4431   1463.4665
    6.1271     2.6466    -0.963    0.571259    0.000000    0.009594   -0.878405   -0.110194     0.0000    0.0000    0.4384   1060.5721
    6.9554     2.4603    -0.934    0.582723    0.000000    0.009493   -1.035343   -0.110227     0.0000    0.0000    0.4345   744.3720
    7.7361     2.2847    -0.921    0.591858    0.000000    0.009513   -1.206682   -0.110146     0.0000    0.0000    0.4313   503.3135
    8.4639     2.1210    -0.932    0.598210    0.000000    0.009724   -1.389629   -0.109886     0.0000    0.0000    0.4288   325.5691
    9.1339     1.9702    -0.974    0.600987    0.000000    0.010212   -1.578616   -0.109339     0.0000    0.0000    0.4270   199.5599
    9.7416     1.8336    -1.060    0.598914    0.000000    0.011081   -1.763959   -0.108316     0.0000    0.0000    0.4260   114.3829
   10.2827     1.7118    -1.208    0.590028    0.000000    0.012438   -1.929812   -0.106505     0.0000    0.0000    0.4257   60.1393
   10.7535     1.6059    -1.440    0.571490    0.000000    0.014360   -2.052388   -0.103417     0.0000    0.0000    0.4264   28.1703
   11.1509     1.5165    -1.788    0.539527    0.000000    0.016842   -2.099727   -0.098401     0.0000    0.0000    0.4282   11.2120
   11.4722     1.4442    -2.315    0.489691    0.000000    0.019796   -2.036623   -0.090900     0.0000    0.0000    0.4320    3.4823
   11.7150     1.3896    -3.136    0.417120    0.000000    0.022858   -1.839541   -0.080972     0.0000    0.0000    0.4397    0.7051
   11.8778     1.3530    -4.361    0.316953    0.000000    0.024174   -1.534988   -0.071574     0.0000    0.0000    0.4599    0.0550
   11.9595     1.3346    -6.128    0.195079    0.000000    0.020948   -1.087986   -0.044306     0.0000    0.0000    0.4350    0.0000


Main Wing Cp Coefficients
 Panel     CtrlPt.x        CtrlPt.y        CtrlPt.z       Nx      Ny       Nz        Area       Cp
Main WingCp Coefficients
Strip 1
  13       6.885e+00      -1.195e+01       5.045e-01          -0.063          -0.062          -0.996       7.953e-04         -0.2091
  14       6.847e+00      -1.195e+01       5.108e-01          -0.196          -0.093          -0.976       2.384e-03         -0.1153
  15       6.773e+00      -1.195e+01       5.183e-01          -0.039          -0.054          -0.998       3.742e-03         -0.0299
  16       6.667e+00      -1.195e+01       5.126e-01           0.122          -0.011          -0.992       4.967e-03          0.0272
  17       6.536e+00      -1.195e+01       4.900e-01           0.209           0.015          -0.978       5.972e-03          0.0136
  18       6.386e+00      -1.195e+01       4.600e-01           0.185           0.007          -0.983       6.516e-03         -0.0762
  19       6.228e+00      -1.195e+01       4.382e-01           0.089          -0.026          -0.996       6.616e-03         -0.1418
  20       6.069e+00      -1.195e+01       4.302e-01           0.010          -0.055          -0.998       6.398e-03         -0.1445
  21       5.920e+00      -1.195e+01       4.326e-01          -0.045          -0.077          -0.996       5.843e-03         -0.1336
  22       5.789e+00      -1.195e+01       4.418e-01          -0.099          -0.099          -0.990       4.963e-03         -0.1270
  23       5.683e+00      -1.195e+01       4.560e-01          -0.178          -0.132          -0.975       3.818e-03         -0.1214
  24       5.608e+00      -1.195e+01       4.760e-01          -0.374          -0.217          -0.902       2.566e-03         -0.0039
  25       5.570e+00      -1.195e+01       5.047e-01          -0.805          -0.394          -0.443       1.726e-03          0.5492
  26       5.570e+00      -1.195e+01       5.385e-01          -0.804          -0.353           0.478       1.715e-03         -0.0648
  27       5.608e+00      -1.195e+01       5.671e-01          -0.376          -0.139           0.916       2.567e-03         -0.8411
  28       5.683e+00      -1.195e+01       5.873e-01          -0.180          -0.048           0.983       3.814e-03         -0.5461
  29       5.789e+00      -1.194e+01       6.016e-01          -0.097          -0.011           0.995       4.953e-03         -0.3779
  30       5.920e+00      -1.194e+01       6.106e-01          -0.044           0.011           0.999       5.832e-03         -0.3070
  31       6.069e+00      -1.194e+01       6.139e-01          -0.003           0.027           1.000       6.386e-03         -0.2696
  32       6.228e+00      -1.194e+01       6.113e-01           0.036           0.041           0.999       6.580e-03         -0.2479
  33       6.386e+00      -1.194e+01       6.022e-01           0.079           0.056           0.995       6.406e-03         -0.2352
  34       6.536e+00      -1.195e+01       5.866e-01           0.132           0.072           0.989       5.878e-03         -0.2316
  35       6.667e+00      -1.195e+01       5.654e-01           0.190           0.088           0.978       5.021e-03         -0.2584
  36       6.773e+00      -1.195e+01       5.423e-01           0.243           0.102           0.965       3.862e-03         -0.3194
  37       6.847e+00      -1.195e+01       5.225e-01           0.281           0.111           0.953       2.438e-03         -0.3861
  38       6.885e+00      -1.195e+01       5.090e-01           0.465           0.152           0.872       9.040e-04         -0.2375
Strip 2
  39       6.866e+00      -1.187e+01       5.007e-01          -0.063          -0.062          -0.996       2.413e-03         -0.0519
  40       6.827e+00      -1.187e+01       5.071e-01          -0.196          -0.093          -0.976       7.233e-03          0.1010
  41       6.752e+00      -1.187e+01       5.147e-01          -0.039          -0.054          -0.998       1.136e-02          0.2028
  42       6.644e+00      -1.187e+01       5.090e-01           0.122          -0.011          -0.992       1.507e-02          0.2037
  43       6.511e+00      -1.187e+01       4.860e-01           0.209           0.015          -0.978       1.812e-02          0.1102
  44       6.360e+00      -1.187e+01       4.556e-01           0.185           0.007          -0.983       1.977e-02         -0.0550
  45       6.199e+00      -1.187e+01       4.334e-01           0.089          -0.026          -0.996       2.007e-02         -0.1652
  46       6.038e+00      -1.187e+01       4.253e-01           0.010          -0.055          -0.998       1.941e-02         -0.1752
  47       5.887e+00      -1.187e+01       4.278e-01          -0.045          -0.077          -0.996       1.773e-02         -0.1593
  48       5.754e+00      -1.187e+01       4.371e-01          -0.099          -0.099          -0.990       1.506e-02         -0.1447
  49       5.646e+00      -1.187e+01       4.516e-01          -0.178          -0.132          -0.975       1.159e-02         -0.1217
  50       5.571e+00      -1.187e+01       4.718e-01          -0.374          -0.217          -0.902       7.787e-03          0.0544
  51       5.532e+00      -1.187e+01       5.009e-01          -0.805          -0.394          -0.443       5.239e-03          0.6572
  52       5.532e+00      -1.187e+01       5.352e-01          -0.804          -0.353           0.478       5.203e-03         -0.1434
  53       5.571e+00      -1.186e+01       5.642e-01          -0.377          -0.139           0.916       7.787e-03         -1.0384
  54       5.646e+00      -1.186e+01       5.847e-01          -0.180          -0.048           0.983       1.157e-02         -0.6979
  55       5.754e+00      -1.186e+01       5.991e-01          -0.097          -0.011           0.995       1.503e-02         -0.4847
  56       5.887e+00      -1.186e+01       6.082e-01          -0.044           0.011           0.999       1.769e-02         -0.3838
  57       6.038e+00      -1.186e+01       6.116e-01          -0.003           0.027           1.000       1.938e-02         -0.3318
  58       6.199e+00      -1.186e+01       6.089e-01           0.036           0.041           0.999       1.997e-02         -0.3065
  59       6.360e+00      -1.186e+01       5.998e-01           0.079           0.056           0.995       1.944e-02         -0.2963
  60       6.511e+00      -1.186e+01       5.839e-01           0.132           0.072           0.989       1.784e-02         -0.2888
  61       6.644e+00      -1.186e+01       5.625e-01           0.190           0.088           0.978       1.524e-02         -0.2811
  62       6.752e+00      -1.187e+01       5.391e-01           0.243           0.102           0.965       1.172e-02         -0.2573
  63       6.827e+00      -1.187e+01       5.189e-01           0.281           0.111           0.953       7.400e-03         -0.2417
  64       6.866e+00      -1.187e+01       5.053e-01           0.465           0.152           0.872       2.743e-03         -0.0599
Strip 3
  65       6.826e+00      -1.170e+01       4.931e-01          -0.063          -0.062          -0.996       4.112e-03          0.0840
  66       6.787e+00      -1.170e+01       4.997e-01          -0.196          -0.093          -0.976       1.233e-02          0.2569
  67       6.709e+00      -1.170e+01       5.075e-01          -0.039          -0.054          -0.998       1.935e-02          0.3454
  68       6.599e+00      -1.170e+01       5.016e-01           0.122          -0.011          -0.992       2.568e-02          0.3015
  69       6.462e+00      -1.171e+01       4.780e-01           0.209           0.015          -0.978       3.088e-02          0.1635
  70       6.307e+00      -1.171e+01       4.468e-01           0.185           0.007          -0.983       3.369e-02         -0.0377
  71       6.142e+00      -1.171e+01       4.240e-01           0.089          -0.026          -0.996       3.420e-02         -0.1734
  72       5.977e+00      -1.171e+01       4.157e-01           0.010          -0.055          -0.998       3.308e-02         -0.1889
  73       5.821e+00      -1.171e+01       4.182e-01          -0.045          -0.077          -0.996       3.021e-02         -0.1623
  74       5.684e+00      -1.171e+01       4.278e-01          -0.099          -0.099          -0.990       2.567e-02         -0.1215
  75       5.574e+00      -1.171e+01       4.427e-01          -0.178          -0.132          -0.975       1.975e-02         -0.0553
  76       5.497e+00      -1.171e+01       4.635e-01          -0.374          -0.217          -0.902       1.327e-02          0.1740
  77       5.457e+00      -1.170e+01       4.933e-01          -0.805          -0.394          -0.444       8.930e-03          0.7639
  78       5.457e+00      -1.170e+01       5.285e-01          -0.804          -0.354           0.478       8.863e-03         -0.1947
  79       5.497e+00      -1.170e+01       5.584e-01          -0.377          -0.139           0.916       1.327e-02         -1.1652
  80       5.574e+00      -1.170e+01       5.794e-01          -0.180          -0.048           0.983       1.972e-02         -0.8122
  81       5.684e+00      -1.170e+01       5.942e-01          -0.097          -0.011           0.995       2.561e-02         -0.5923
  82       5.821e+00      -1.170e+01       6.036e-01          -0.044           0.011           0.999       3.015e-02         -0.4776
  83       5.977e+00      -1.170e+01       6.071e-01          -0.003           0.027           1.000       3.302e-02         -0.4103
  84       6.142e+00      -1.170e+01       6.043e-01           0.036           0.041           0.999       3.402e-02         -0.3728
  85       6.307e+00      -1.170e+01       5.949e-01           0.079           0.056           0.995       3.312e-02         -0.3479
  86       6.462e+00      -1.170e+01       5.786e-01           0.132           0.072           0.989       3.040e-02         -0.3105
  87       6.599e+00      -1.170e+01       5.566e-01           0.190           0.088           0.978       2.597e-02         -0.2501
  88       6.709e+00      -1.170e+01       5.325e-01           0.243           0.102           0.965       1.997e-02         -0.1599
  89       6.787e+00      -1.170e+01       5.119e-01           0.281           0.111           0.953       1.261e-02         -0.0873
  90       6.826e+00      -1.170e+01       4.978e-01           0.465           0.152           0.872       4.675e-03          0.1071
Strip 4
  91       6.768e+00      -1.146e+01       4.818e-01          -0.063          -0.062          -0.996       5.943e-03          0.1151
  92       6.726e+00      -1.146e+01       4.886e-01          -0.196          -0.093          -0.976       1.782e-02          0.2943
  93       6.646e+00      -1.146e+01       4.967e-01          -0.039          -0.054          -0.998       2.796e-02          0.3850
  94       6.531e+00      -1.146e+01       4.906e-01           0.122          -0.011          -0.992       3.711e-02          0.3361
  95       6.389e+00      -1.146e+01       4.661e-01           0.209           0.015          -0.978       4.461e-02          0.1887
  96       6.228e+00      -1.146e+01       4.337e-01           0.185           0.007          -0.983       4.868e-02         -0.0237
  97       6.056e+00      -1.146e+01       4.100e-01           0.089          -0.026          -0.996       4.942e-02         -0.1673
  98       5.884e+00      -1.147e+01       4.014e-01           0.010          -0.055          -0.998       4.781e-02         -0.1814
  99       5.723e+00      -1.146e+01       4.040e-01          -0.045          -0.077          -0.996       4.366e-02         -0.1437
 100       5.581e+00      -1.146e+01       4.139e-01          -0.099          -0.099          -0.990       3.709e-02         -0.0866
 101       5.466e+00      -1.146e+01       4.294e-01          -0.178          -0.132          -0.975       2.854e-02         -0.0044
 102       5.386e+00      -1.146e+01       4.510e-01          -0.374          -0.217          -0.902       1.919e-02          0.2405
 103       5.344e+00      -1.146e+01       4.820e-01          -0.805          -0.394          -0.444       1.291e-02          0.7921
 104       5.344e+00      -1.146e+01       5.186e-01          -0.805          -0.354           0.477       1.280e-02         -0.2667
 105       5.386e+00      -1.146e+01       5.496e-01          -0.377          -0.139           0.916       1.916e-02         -1.2603
 106       5.466e+00      -1.146e+01       5.715e-01          -0.180          -0.048           0.983       2.849e-02         -0.8838
 107       5.581e+00      -1.146e+01       5.869e-01          -0.097          -0.011           0.995       3.700e-02         -0.6604
 108       5.723e+00      -1.146e+01       5.966e-01          -0.044           0.011           0.999       4.357e-02         -0.5473
 109       5.884e+00      -1.146e+01       6.003e-01          -0.003           0.027           1.000       4.771e-02         -0.4772
 110       6.056e+00      -1.146e+01       5.974e-01           0.036           0.041           0.999       4.917e-02         -0.4328
 111       6.228e+00      -1.146e+01       5.876e-01           0.079           0.056           0.995       4.787e-02         -0.3975
 112       6.389e+00      -1.146e+01       5.706e-01           0.132           0.072           0.989       4.393e-02         -0.3455
 113       6.531e+00      -1.146e+01       5.478e-01           0.190           0.088           0.978       3.753e-02         -0.2666
 114       6.646e+00      -1.146e+01       5.228e-01           0.243           0.102           0.965       2.886e-02         -0.1563
 115       6.726e+00      -1.146e+01       5.013e-01           0.281           0.111           0.953       1.823e-02         -0.0652
 116       6.768e+00      -1.146e+01       4.867e-01           0.465           0.152           0.872       6.758e-03          0.1330
Strip 5
 117       6.690e+00      -1.114e+01       4.669e-01          -0.063          -0.062          -0.996       7.950e-03          0.1238
 118       6.647e+00      -1.114e+01       4.740e-01          -0.196          -0.093          -0.976       2.383e-02          0.3063
 119       6.562e+00      -1.114e+01       4.826e-01          -0.039          -0.054          -0.998       3.741e-02          0.3991
 120       6.442e+00      -1.114e+01       4.761e-01           0.123          -0.011          -0.992       4.964e-02          0.3502
 121       6.293e+00      -1.114e+01       4.504e-01           0.209           0.015          -0.978       5.967e-02          0.2018
 122       6.123e+00      -1.114e+01       4.163e-01           0.185           0.007          -0.983       6.510e-02         -0.0118
 123       5.943e+00      -1.114e+01       3.915e-01           0.089          -0.026          -0.996       6.611e-02         -0.1550
 124       5.763e+00      -1.114e+01       3.824e-01           0.010          -0.055          -0.998       6.395e-02         -0.1658
 125       5.593e+00      -1.114e+01       3.851e-01          -0.045          -0.077          -0.996       5.841e-02         -0.1228
 126       5.444e+00      -1.114e+01       3.956e-01          -0.099          -0.099          -0.990       4.963e-02         -0.0603
 127       5.323e+00      -1.114e+01       4.118e-01          -0.177          -0.132          -0.975       3.819e-02          0.0278
 128       5.239e+00      -1.114e+01       4.345e-01          -0.374          -0.217          -0.902       2.568e-02          0.2805
 129       5.196e+00      -1.114e+01       4.671e-01          -0.804          -0.394          -0.445       1.728e-02          0.8018
 130       5.196e+00      -1.114e+01       5.055e-01          -0.805          -0.354           0.476       1.712e-02         -0.3265
 131       5.239e+00      -1.114e+01       5.381e-01          -0.377          -0.139           0.916       2.562e-02         -1.3311
 132       5.323e+00      -1.114e+01       5.610e-01          -0.180          -0.048           0.983       3.810e-02         -0.9326
 133       5.444e+00      -1.114e+01       5.772e-01          -0.097          -0.011           0.995       4.950e-02         -0.7033
 134       5.593e+00      -1.114e+01       5.874e-01          -0.044           0.011           0.999       5.828e-02         -0.5906
 135       5.763e+00      -1.114e+01       5.913e-01          -0.003           0.027           1.000       6.382e-02         -0.5214
 136       5.943e+00      -1.114e+01       5.882e-01           0.036           0.041           0.999       6.578e-02         -0.4756
 137       6.123e+00      -1.114e+01       5.779e-01           0.079           0.056           0.995       6.404e-02         -0.4354
 138       6.293e+00      -1.114e+01       5.602e-01           0.132           0.072           0.989       5.877e-02         -0.3753
 139       6.442e+00      -1.114e+01       5.362e-01           0.190           0.088           0.978       5.021e-02         -0.2859
 140       6.562e+00      -1.114e+01       5.099e-01           0.243           0.102           0.965       3.862e-02         -0.1652
 141       6.647e+00      -1.114e+01       4.873e-01           0.281           0.111           0.953       2.439e-02         -0.0652
 142       6.690e+00      -1.114e+01       4.720e-01           0.465           0.152           0.872       9.043e-03          0.1353
Strip 6
 143       6.594e+00      -1.074e+01       4.484e-01          -0.063          -0.062          -0.996       1.017e-02          0.1264
 144       6.548e+00      -1.074e+01       4.560e-01          -0.196          -0.093          -0.976       3.050e-02          0.3110
 145       6.459e+00      -1.074e+01       4.650e-01          -0.039          -0.054          -0.998       4.787e-02          0.4056
 146       6.331e+00      -1.074e+01       4.582e-01           0.123          -0.011          -0.992       6.350e-02          0.3576
 147       6.173e+00      -1.074e+01       4.309e-01           0.209           0.015          -0.978       7.632e-02          0.2099
 148       5.993e+00      -1.075e+01       3.949e-01           0.185           0.007          -0.983       8.328e-02         -0.0023
 149       5.803e+00      -1.075e+01       3.685e-01           0.089          -0.026          -0.996       8.457e-02         -0.1435
 150       5.612e+00      -1.075e+01       3.589e-01           0.010          -0.055          -0.998       8.182e-02         -0.1523
 151       5.432e+00      -1.075e+01       3.618e-01          -0.045          -0.077          -0.996       7.474e-02         -0.1074
 152       5.274e+00      -1.075e+01       3.729e-01          -0.099          -0.099          -0.990       6.350e-02         -0.0432
 153       5.147e+00      -1.075e+01       3.901e-01          -0.177          -0.132          -0.975       4.887e-02          0.0476
 154       5.057e+00      -1.075e+01       4.141e-01          -0.373          -0.217          -0.902       3.287e-02          0.3044
 155       5.011e+00      -1.074e+01       4.486e-01          -0.804          -0.393          -0.446       2.212e-02          0.8053
 156       5.011e+00      -1.074e+01       4.893e-01          -0.805          -0.354           0.475       2.189e-02         -0.3675
 157       5.057e+00      -1.074e+01       5.238e-01          -0.377          -0.140           0.916       3.277e-02         -1.3788
 158       5.147e+00      -1.074e+01       5.481e-01          -0.180          -0.048           0.983       4.874e-02         -0.9641
 159       5.274e+00      -1.074e+01       5.652e-01          -0.097          -0.011           0.995       6.332e-02         -0.7298
 160       5.432e+00      -1.074e+01       5.761e-01          -0.044           0.011           0.999       7.456e-02         -0.6164
 161       5.612e+00      -1.074e+01       5.801e-01          -0.003           0.027           1.000       8.166e-02         -0.5477
 162       5.803e+00      -1.074e+01       5.769e-01           0.036           0.041           0.999       8.416e-02         -0.5015
 163       5.993e+00      -1.074e+01       5.660e-01           0.079           0.056           0.995       8.194e-02         -0.4593
 164       6.173e+00      -1.074e+01       5.472e-01           0.132           0.072           0.989       7.520e-02         -0.3950
 165       6.331e+00      -1.074e+01       5.218e-01           0.190           0.088           0.978       6.425e-02         -0.2999
 166       6.459e+00      -1.074e+01       4.939e-01           0.243           0.102           0.965       4.942e-02         -0.1735
 167       6.548e+00      -1.074e+01       4.701e-01           0.281           0.111           0.953       3.121e-02         -0.0689
 168       6.594e+00      -1.074e+01       4.538e-01           0.465           0.152           0.872       1.157e-02          0.1328
Strip 7
 169       6.480e+00      -1.027e+01       4.265e-01          -0.063          -0.062          -0.996       1.264e-02          0.1275
 170       6.431e+00      -1.027e+01       4.346e-01          -0.196          -0.093          -0.976       3.790e-02          0.3134
 171       6.336e+00      -1.027e+01       4.442e-01          -0.039          -0.054          -0.998       5.947e-02          0.4093
 172       6.200e+00      -1.027e+01       4.369e-01           0.123          -0.011          -0.992       7.889e-02          0.3621
 173       6.032e+00      -1.027e+01       4.079e-01           0.209           0.015          -0.978       9.480e-02          0.2153
 174       5.840e+00      -1.028e+01       3.694e-01           0.185           0.007          -0.983       1.034e-01          0.0042
 175       5.637e+00      -1.028e+01       3.413e-01           0.089          -0.026          -0.996       1.051e-01         -0.1357
 176       5.433e+00      -1.028e+01       3.311e-01           0.010          -0.055          -0.998       1.017e-01         -0.1435
 177       5.242e+00      -1.028e+01       3.342e-01          -0.045          -0.077          -0.996       9.286e-02         -0.0980
 178       5.073e+00      -1.028e+01       3.460e-01          -0.099          -0.099          -0.990       7.891e-02         -0.0334
 179       4.937e+00      -1.028e+01       3.643e-01          -0.177          -0.132          -0.975       6.073e-02          0.0584
 180       4.842e+00      -1.027e+01       3.899e-01          -0.373          -0.217          -0.902       4.086e-02          0.3170
 181       4.793e+00      -1.027e+01       4.267e-01          -0.803          -0.393          -0.447       2.749e-02          0.8067
 182       4.793e+00      -1.027e+01       4.701e-01          -0.806          -0.354           0.474       2.718e-02         -0.3898
 183       4.842e+00      -1.027e+01       5.069e-01          -0.377          -0.140           0.915       4.069e-02         -1.4057
 184       4.937e+00      -1.027e+01       5.328e-01          -0.180          -0.048           0.983       6.054e-02         -0.9820
 185       5.073e+00      -1.027e+01       5.511e-01          -0.097          -0.011           0.995       7.865e-02         -0.7447
 186       5.242e+00      -1.027e+01       5.626e-01          -0.044           0.011           0.999       9.263e-02         -0.6308
 187       5.433e+00      -1.027e+01       5.669e-01          -0.003           0.027           1.000       1.015e-01         -0.5623
 188       5.637e+00      -1.027e+01       5.635e-01           0.036           0.041           0.999       1.046e-01         -0.5160
 189       5.840e+00      -1.027e+01       5.519e-01           0.079           0.056           0.995       1.018e-01         -0.4728
 190       6.032e+00      -1.027e+01       5.318e-01           0.132           0.072           0.989       9.344e-02         -0.4064
 191       6.200e+00      -1.027e+01       5.047e-01           0.190           0.088           0.978       7.984e-02         -0.3083
 192       6.336e+00      -1.027e+01       4.750e-01           0.243           0.102           0.965       6.141e-02         -0.1790
 193       6.431e+00      -1.027e+01       4.496e-01           0.281           0.111           0.953       3.878e-02         -0.0718
 194       6.480e+00      -1.027e+01       4.323e-01           0.464           0.152           0.872       1.438e-02          0.1306
Strip 8
 195       6.349e+00      -9.733e+00       4.013e-01          -0.063          -0.062          -0.996       1.537e-02          0.1281
 196       6.297e+00      -9.733e+00       4.100e-01          -0.196          -0.093          -0.976       4.609e-02          0.3148
 197       6.195e+00      -9.732e+00       4.203e-01          -0.039          -0.054          -0.998       7.231e-02          0.4115
 198       6.050e+00      -9.733e+00       4.125e-01           0.123          -0.011          -0.992       9.590e-02          0.3648
 199       5.869e+00      -9.733e+00       3.814e-01           0.209           0.015          -0.978       1.152e-01          0.2185
 200       5.664e+00      -9.734e+00       3.402e-01           0.185           0.007          -0.983       1.258e-01          0.0080
 201       5.446e+00      -9.735e+00       3.101e-01           0.089          -0.026          -0.996       1.277e-01         -0.1314
 202       5.228e+00      -9.736e+00       2.991e-01           0.010          -0.055          -0.998       1.236e-01         -0.1389
 203       5.023e+00      -9.735e+00       3.024e-01          -0.045          -0.077          -0.996       1.129e-01         -0.0935
 204       4.843e+00      -9.735e+00       3.151e-01          -0.099          -0.099          -0.990       9.595e-02         -0.0292
 205       4.697e+00      -9.735e+00       3.347e-01          -0.177          -0.132          -0.975       7.386e-02          0.0625
 206       4.595e+00      -9.734e+00       3.622e-01          -0.373          -0.217          -0.902       4.970e-02          0.3211
 207       4.543e+00      -9.733e+00       4.016e-01          -0.803          -0.393          -0.448       3.345e-02          0.8075
 208       4.543e+00      -9.732e+00       4.481e-01          -0.806          -0.355           0.473       3.303e-02         -0.3957
 209       4.595e+00      -9.731e+00       4.874e-01          -0.378          -0.140           0.915       4.944e-02         -1.4152
 210       4.697e+00      -9.730e+00       5.152e-01          -0.180          -0.048           0.983       7.359e-02         -0.9889
 211       4.843e+00      -9.729e+00       5.348e-01          -0.097          -0.011           0.995       9.562e-02         -0.7513
 212       5.023e+00      -9.729e+00       5.472e-01          -0.044           0.011           0.999       1.126e-01         -0.6376
 213       5.228e+00      -9.729e+00       5.518e-01          -0.003           0.027           1.000       1.234e-01         -0.5695
 214       5.446e+00      -9.729e+00       5.481e-01           0.036           0.041           0.999       1.271e-01         -0.5233
 215       5.664e+00      -9.729e+00       5.357e-01           0.079           0.056           0.995       1.238e-01         -0.4797
 216       5.869e+00      -9.730e+00       5.141e-01           0.132           0.072           0.989       1.136e-01         -0.4123
 217       6.050e+00      -9.731e+00       4.851e-01           0.190           0.088           0.978       9.709e-02         -0.3127
 218       6.195e+00      -9.732e+00       4.533e-01           0.243           0.102           0.965       7.468e-02         -0.1819
 219       6.297e+00      -9.732e+00       4.261e-01           0.280           0.111           0.953       4.716e-02         -0.0735
 220       6.349e+00      -9.733e+00       4.075e-01           0.464           0.152           0.872       1.749e-02          0.1291
Strip 9
 221       6.203e+00      -9.126e+00       3.730e-01          -0.063          -0.062          -0.996       1.837e-02          0.1285
 222       6.146e+00      -9.126e+00       3.823e-01          -0.196          -0.093          -0.976       5.509e-02          0.3156
 223       6.037e+00      -9.125e+00       3.934e-01          -0.039          -0.054          -0.998       8.643e-02          0.4127
 224       5.880e+00      -9.126e+00       3.851e-01           0.123          -0.011          -0.992       1.146e-01          0.3664
 225       5.686e+00      -9.126e+00       3.516e-01           0.209           0.015          -0.978       1.377e-01          0.2202
 226       5.466e+00      -9.127e+00       3.074e-01           0.185           0.007          -0.983       1.503e-01          0.0097
 227       5.232e+00      -9.128e+00       2.750e-01           0.089          -0.026          -0.996       1.526e-01         -0.1298
 228       4.998e+00      -9.128e+00       2.632e-01           0.010          -0.055          -0.998       1.477e-01         -0.1375
 229       4.777e+00      -9.128e+00       2.668e-01          -0.045          -0.077          -0.996       1.350e-01         -0.0926
 230       4.583e+00      -9.128e+00       2.804e-01          -0.099          -0.099          -0.990       1.147e-01         -0.0289
 231       4.427e+00      -9.127e+00       3.014e-01          -0.177          -0.132          -0.975       8.830e-02          0.0617
 232       4.317e+00      -9.127e+00       3.310e-01          -0.373          -0.217          -0.902       5.943e-02          0.3189
 233       4.261e+00      -9.126e+00       3.733e-01          -0.802          -0.393          -0.449       4.000e-02          0.8080
 234       4.261e+00      -9.125e+00       4.233e-01          -0.807          -0.355           0.472       3.945e-02         -0.3885
 235       4.317e+00      -9.124e+00       4.656e-01          -0.378          -0.140           0.915       5.906e-02         -1.4110
 236       4.427e+00      -9.123e+00       4.954e-01          -0.180          -0.048           0.983       8.793e-02         -0.9878
 237       4.583e+00      -9.123e+00       5.165e-01          -0.097          -0.011           0.995       1.143e-01         -0.7517
 238       4.777e+00      -9.122e+00       5.298e-01          -0.044           0.011           0.999       1.346e-01         -0.6391
 239       4.998e+00      -9.122e+00       5.347e-01          -0.003           0.027           1.000       1.474e-01         -0.5717
 240       5.232e+00      -9.122e+00       5.308e-01           0.036           0.041           0.999       1.520e-01         -0.5260
 241       5.466e+00      -9.123e+00       5.174e-01           0.079           0.056           0.995       1.480e-01         -0.4824
 242       5.686e+00      -9.123e+00       4.943e-01           0.132           0.072           0.989       1.358e-01         -0.4147
 243       5.880e+00      -9.124e+00       4.631e-01           0.190           0.088           0.978       1.161e-01         -0.3146
 244       6.037e+00      -9.125e+00       4.289e-01           0.243           0.102           0.965       8.928e-02         -0.1834
 245       6.146e+00      -9.125e+00       3.996e-01           0.280           0.111           0.953       5.638e-02         -0.0743
 246       6.203e+00      -9.126e+00       3.797e-01           0.464           0.152           0.873       2.091e-02          0.1284
Strip 10
 247       6.041e+00      -8.456e+00       3.418e-01          -0.063          -0.062          -0.996       2.163e-02          0.1286
 248       5.980e+00      -8.456e+00       3.519e-01          -0.196          -0.093          -0.976       6.489e-02          0.3161
 249       5.862e+00      -8.456e+00       3.638e-01          -0.039          -0.054          -0.998       1.018e-01          0.4134
 250       5.694e+00      -8.456e+00       3.548e-01           0.123          -0.011          -0.992       1.350e-01          0.3671
 251       5.485e+00      -8.457e+00       3.188e-01           0.209           0.015          -0.978       1.622e-01          0.2208
 252       5.248e+00      -8.458e+00       2.712e-01           0.185           0.007          -0.983       1.769e-01          0.0099
 253       4.996e+00      -8.458e+00       2.363e-01           0.089          -0.026          -0.996       1.798e-01         -0.1301
 254       4.744e+00      -8.459e+00       2.236e-01           0.010          -0.055          -0.998       1.740e-01         -0.1384
 255       4.506e+00      -8.459e+00       2.274e-01          -0.045          -0.077          -0.996       1.590e-01         -0.0941
 256       4.298e+00      -8.458e+00       2.421e-01          -0.099          -0.099          -0.990       1.351e-01         -0.0317
 257       4.129e+00      -8.458e+00       2.648e-01          -0.177          -0.132          -0.975       1.040e-01          0.0570
 258       4.011e+00      -8.457e+00       2.966e-01          -0.373          -0.217          -0.902       7.003e-02          0.3116
 259       3.951e+00      -8.456e+00       3.422e-01          -0.802          -0.393          -0.450       4.714e-02          0.8085
 260       3.951e+00      -8.455e+00       3.960e-01          -0.807          -0.355           0.471       4.644e-02         -0.3711
 261       4.011e+00      -8.454e+00       4.415e-01          -0.378          -0.140           0.915       6.953e-02         -1.3964
 262       4.129e+00      -8.454e+00       4.736e-01          -0.180          -0.048           0.982       1.035e-01         -0.9805
 263       4.298e+00      -8.453e+00       4.963e-01          -0.097          -0.011           0.995       1.346e-01         -0.7478
 264       4.506e+00      -8.453e+00       5.106e-01          -0.044           0.011           0.999       1.585e-01         -0.6369
 265       4.744e+00      -8.453e+00       5.160e-01          -0.003           0.027           1.000       1.736e-01         -0.5706
 266       4.996e+00      -8.453e+00       5.117e-01           0.036           0.041           0.999       1.790e-01         -0.5257
 267       5.248e+00      -8.453e+00       4.973e-01           0.079           0.056           0.995       1.743e-01         -0.4826
 268       5.485e+00      -8.454e+00       4.724e-01           0.132           0.072           0.989       1.600e-01         -0.4150
 269       5.694e+00      -8.455e+00       4.388e-01           0.190           0.088           0.978       1.367e-01         -0.3150
 270       5.862e+00      -8.455e+00       4.021e-01           0.243           0.102           0.965       1.052e-01         -0.1836
 271       5.980e+00      -8.456e+00       3.705e-01           0.280           0.111           0.953       6.641e-02         -0.0746
 272       6.041e+00      -8.456e+00       3.490e-01           0.464           0.152           0.873       2.464e-02          0.1279
Strip 11
 273       5.865e+00      -7.729e+00       3.080e-01          -0.063          -0.062          -0.996       2.515e-02          0.1285
 274       5.800e+00      -7.729e+00       3.188e-01          -0.196          -0.093          -0.976       7.545e-02          0.3162
 275       5.672e+00      -7.729e+00       3.316e-01          -0.039          -0.054          -0.998       1.183e-01          0.4138
 276       5.491e+00      -7.729e+00       3.220e-01           0.123          -0.011          -0.992       1.569e-01          0.3674
 277       5.266e+00      -7.730e+00       2.832e-01           0.209           0.015          -0.978       1.885e-01          0.2207
 278       5.011e+00      -7.730e+00       2.318e-01           0.185           0.007          -0.983       2.057e-01          0.0090
 279       4.739e+00      -7.731e+00       1.943e-01           0.089          -0.026          -0.996       2.089e-01         -0.1318
 280       4.468e+00      -7.731e+00       1.806e-01           0.010          -0.055          -0.998       2.022e-01         -0.1410
 281       4.212e+00      -7.731e+00       1.847e-01          -0.045          -0.077          -0.996       1.848e-01         -0.0977
 282       3.987e+00      -7.731e+00       2.005e-01          -0.099          -0.099          -0.990       1.571e-01         -0.0368
 283       3.806e+00      -7.731e+00       2.250e-01          -0.177          -0.132          -0.975       1.210e-01          0.0494
 284       3.679e+00      -7.730e+00       2.592e-01          -0.372          -0.217          -0.902       8.145e-02          0.3004
 285       3.613e+00      -7.729e+00       3.084e-01          -0.802          -0.393          -0.451       5.482e-02          0.8086
 286       3.613e+00      -7.728e+00       3.663e-01          -0.808          -0.355           0.470       5.396e-02         -0.3455
 287       3.679e+00      -7.727e+00       4.154e-01          -0.378          -0.140           0.915       8.079e-02         -1.3733
 288       3.806e+00      -7.727e+00       4.499e-01          -0.180          -0.048           0.982       1.203e-01         -0.9681
 289       3.987e+00      -7.726e+00       4.744e-01          -0.097          -0.011           0.995       1.564e-01         -0.7402
 290       4.212e+00      -7.726e+00       4.898e-01          -0.044           0.011           0.999       1.843e-01         -0.6319
 291       4.468e+00      -7.726e+00       4.956e-01          -0.003           0.027           1.000       2.018e-01         -0.5673
 292       4.739e+00      -7.726e+00       4.910e-01           0.036           0.041           0.999       2.081e-01         -0.5234
 293       5.011e+00      -7.726e+00       4.755e-01           0.079           0.056           0.995       2.026e-01         -0.4810
 294       5.266e+00      -7.727e+00       4.487e-01           0.132           0.072           0.989       1.860e-01         -0.4140
 295       5.491e+00      -7.727e+00       4.125e-01           0.190           0.088           0.978       1.589e-01         -0.3143
 296       5.672e+00      -7.728e+00       3.729e-01           0.243           0.102           0.965       1.223e-01         -0.1833
 297       5.800e+00      -7.729e+00       3.389e-01           0.280           0.111           0.953       7.722e-02         -0.0745
 298       5.865e+00      -7.729e+00       3.157e-01           0.464           0.152           0.873       2.865e-02          0.1275
Strip 12
 299       5.676e+00      -6.949e+00       2.717e-01          -0.063          -0.062          -0.996       2.889e-02          0.1284
 300       5.606e+00      -6.949e+00       2.833e-01          -0.196          -0.093          -0.976       8.666e-02          0.3162
 301       5.469e+00      -6.949e+00       2.971e-01          -0.039          -0.054          -0.998       1.359e-01          0.4138
 302       5.274e+00      -6.949e+00       2.867e-01           0.123          -0.011          -0.992       1.802e-01          0.3674
 303       5.032e+00      -6.950e+00       2.449e-01           0.209           0.015          -0.978       2.164e-01          0.2202
 304       4.756e+00      -6.950e+00       1.896e-01           0.185           0.007          -0.983       2.362e-01          0.0073
 305       4.464e+00      -6.951e+00       1.492e-01           0.089          -0.026          -0.996       2.400e-01         -0.1347
 306       4.172e+00      -6.951e+00       1.345e-01           0.010          -0.055          -0.998       2.323e-01         -0.1449
 307       3.896e+00      -6.951e+00       1.389e-01          -0.045          -0.077          -0.996       2.123e-01         -0.1029
 308       3.654e+00      -6.951e+00       1.559e-01          -0.099          -0.099          -0.990       1.804e-01         -0.0437
 309       3.459e+00      -6.950e+00       1.822e-01          -0.177          -0.132          -0.975       1.389e-01          0.0394
 310       3.322e+00      -6.950e+00       2.191e-01          -0.372          -0.217          -0.903       9.358e-02          0.2858
 311       3.252e+00      -6.949e+00       2.721e-01          -0.801          -0.393          -0.452       6.299e-02          0.8083
 312       3.252e+00      -6.948e+00       3.345e-01          -0.808          -0.356           0.470       6.195e-02         -0.3133
 313       3.322e+00      -6.948e+00       3.873e-01          -0.378          -0.140           0.915       9.275e-02         -1.3428
 314       3.459e+00      -6.947e+00       4.246e-01          -0.180          -0.048           0.982       1.382e-01         -0.9519
 315       3.654e+00      -6.947e+00       4.508e-01          -0.097          -0.011           0.995       1.796e-01         -0.7301
 316       3.896e+00      -6.946e+00       4.675e-01          -0.044           0.011           0.999       2.116e-01         -0.6249
 317       4.172e+00      -6.946e+00       4.737e-01          -0.003           0.027           1.000       2.318e-01         -0.5621
 318       4.464e+00      -6.946e+00       4.688e-01           0.036           0.041           0.999       2.390e-01         -0.5196
 319       4.756e+00      -6.947e+00       4.521e-01           0.079           0.056           0.995       2.327e-01         -0.4783
 320       5.032e+00      -6.947e+00       4.232e-01           0.132           0.072           0.989       2.137e-01         -0.4120
 321       5.274e+00      -6.948e+00       3.842e-01           0.189           0.088           0.978       1.826e-01         -0.3130
 322       5.469e+00      -6.948e+00       3.415e-01           0.243           0.102           0.965       1.405e-01         -0.1826
 323       5.606e+00      -6.949e+00       3.049e-01           0.280           0.111           0.953       8.870e-02         -0.0742
 324       5.676e+00      -6.949e+00       2.800e-01           0.464           0.152           0.873       3.292e-02          0.1273
Strip 13
 325       5.476e+00      -6.122e+00       2.331e-01          -0.063          -0.062          -0.996       3.280e-02          0.1281
 326       5.400e+00      -6.122e+00       2.457e-01          -0.196          -0.093          -0.976       9.842e-02          0.3160
 327       5.253e+00      -6.121e+00       2.605e-01          -0.039          -0.054          -0.998       1.543e-01          0.4137
 328       5.043e+00      -6.122e+00       2.494e-01           0.123          -0.011          -0.992       2.046e-01          0.3671
 329       4.783e+00      -6.122e+00       2.044e-01           0.209           0.015          -0.978       2.457e-01          0.2192
 330       4.486e+00      -6.123e+00       1.449e-01           0.185           0.007          -0.983       2.681e-01          0.0051
 331       4.172e+00      -6.123e+00       1.014e-01           0.089          -0.026          -0.996       2.724e-01         -0.1385
 332       3.858e+00      -6.123e+00       8.556e-02           0.010          -0.055          -0.998       2.637e-01         -0.1499
 333       3.562e+00      -6.123e+00       9.031e-02          -0.045          -0.077          -0.996       2.410e-01         -0.1093
 334       3.301e+00      -6.123e+00       1.086e-01          -0.099          -0.099          -0.990       2.049e-01         -0.0522
 335       3.091e+00      -6.123e+00       1.369e-01          -0.177          -0.132          -0.975       1.578e-01          0.0271
 336       2.944e+00      -6.122e+00       1.766e-01          -0.372          -0.217          -0.903       1.063e-01          0.2681
 337       2.868e+00      -6.122e+00       2.336e-01          -0.801          -0.392          -0.453       7.156e-02          0.8072
 338       2.868e+00      -6.121e+00       3.007e-01          -0.808          -0.356           0.469       7.031e-02         -0.2756
 339       2.944e+00      -6.120e+00       3.576e-01          -0.378          -0.140           0.915       1.053e-01         -1.3063
 340       3.091e+00      -6.120e+00       3.976e-01          -0.180          -0.048           0.982       1.569e-01         -0.9321
 341       3.301e+00      -6.120e+00       4.259e-01          -0.097          -0.012           0.995       2.039e-01         -0.7176
 342       3.562e+00      -6.119e+00       4.438e-01          -0.044           0.011           0.999       2.403e-01         -0.6160
 343       3.858e+00      -6.119e+00       4.505e-01          -0.003           0.027           1.000       2.632e-01         -0.5555
 344       4.172e+00      -6.119e+00       4.452e-01           0.036           0.041           0.999       2.714e-01         -0.5146
 345       4.486e+00      -6.120e+00       4.272e-01           0.079           0.056           0.995       2.643e-01         -0.4745
 346       4.783e+00      -6.120e+00       3.961e-01           0.132           0.072           0.989       2.426e-01         -0.4093
 347       5.043e+00      -6.120e+00       3.542e-01           0.189           0.088           0.978       2.073e-01         -0.3112
 348       5.253e+00      -6.121e+00       3.083e-01           0.243           0.102           0.965       1.595e-01         -0.1816
 349       5.400e+00      -6.121e+00       2.689e-01           0.280           0.111           0.953       1.007e-01         -0.0739
 350       5.476e+00      -6.122e+00       2.421e-01           0.464           0.152           0.873       3.738e-02          0.1271
Strip 14
 351       5.266e+00      -5.252e+00       1.926e-01          -0.063          -0.062          -0.996       3.684e-02          0.1276
 352       5.185e+00      -5.252e+00       2.061e-01          -0.196          -0.093          -0.976       1.105e-01          0.3157
 353       5.027e+00      -5.252e+00       2.221e-01          -0.039          -0.054          -0.998       1.733e-01          0.4134
 354       4.801e+00      -5.252e+00       2.101e-01           0.123          -0.011          -0.992       2.297e-01          0.3666
 355       4.521e+00      -5.253e+00       1.618e-01           0.209           0.015          -0.978       2.759e-01          0.2179
 356       4.203e+00      -5.253e+00       9.787e-02           0.186           0.007          -0.983       3.011e-01          0.0022
 357       3.865e+00      -5.254e+00       5.118e-02           0.089          -0.026          -0.996       3.060e-01         -0.1430
 358       3.528e+00      -5.254e+00       3.415e-02           0.010          -0.055          -0.998       2.962e-01         -0.1559
 359       3.210e+00      -5.254e+00       3.926e-02          -0.045          -0.077          -0.996       2.707e-01         -0.1169
 360       2.930e+00      -5.254e+00       5.889e-02          -0.099          -0.099          -0.990       2.301e-01         -0.0623
 361       2.704e+00      -5.253e+00       8.932e-02          -0.177          -0.132          -0.975       1.773e-01          0.0128
 362       2.546e+00      -5.253e+00       1.319e-01          -0.372          -0.216          -0.903       1.194e-01          0.2473
 363       2.465e+00      -5.252e+00       1.931e-01          -0.800          -0.392          -0.453       8.040e-02          0.8051
 364       2.465e+00      -5.252e+00       2.652e-01          -0.809          -0.356           0.468       7.894e-02         -0.2327
 365       2.546e+00      -5.251e+00       3.263e-01          -0.379          -0.140           0.915       1.182e-01         -1.2636
 366       2.704e+00      -5.251e+00       3.693e-01          -0.180          -0.048           0.982       1.761e-01         -0.9090
 367       2.930e+00      -5.251e+00       3.997e-01          -0.097          -0.012           0.995       2.290e-01         -0.7028
 368       3.210e+00      -5.250e+00       4.189e-01          -0.044           0.011           0.999       2.698e-01         -0.6055
 369       3.528e+00      -5.250e+00       4.261e-01          -0.003           0.027           1.000       2.956e-01         -0.5477
 370       3.865e+00      -5.250e+00       4.204e-01           0.036           0.041           0.999       3.048e-01         -0.5087
 371       4.203e+00      -5.251e+00       4.011e-01           0.079           0.056           0.995       2.969e-01         -0.4700
 372       4.521e+00      -5.251e+00       3.677e-01           0.132           0.072           0.989       2.725e-01         -0.4060
 373       4.801e+00      -5.251e+00       3.227e-01           0.189           0.088           0.978       2.329e-01         -0.3090
 374       5.027e+00      -5.252e+00       2.734e-01           0.243           0.102           0.965       1.792e-01         -0.1804
 375       5.185e+00      -5.252e+00       2.311e-01           0.280           0.111           0.954       1.132e-01         -0.0736
 376       5.266e+00      -5.252e+00       2.023e-01           0.464           0.152           0.873       4.200e-02          0.1266
Strip 15
 377       5.047e+00      -4.347e+00       1.505e-01          -0.063          -0.062          -0.996       4.094e-02          0.1270
 378       4.960e+00      -4.347e+00       1.649e-01          -0.196          -0.093          -0.976       1.229e-01          0.3152
 379       4.790e+00      -4.347e+00       1.821e-01          -0.039          -0.054          -0.998       1.926e-01          0.4129
 380       4.549e+00      -4.347e+00       1.692e-01           0.123          -0.011          -0.992       2.553e-01          0.3658
 381       4.249e+00      -4.347e+00       1.174e-01           0.209           0.015          -0.978       3.066e-01          0.2162
 382       3.908e+00      -4.348e+00       4.891e-02           0.186           0.007          -0.983       3.346e-01         -0.0012
 383       3.546e+00      -4.348e+00      -1.130e-03           0.089          -0.026          -0.996       3.400e-01         -0.1484
 384       3.184e+00      -4.348e+00      -1.938e-02           0.010          -0.055          -0.998       3.292e-01         -0.1628
 385       2.843e+00      -4.348e+00      -1.391e-02          -0.045          -0.077          -0.996       3.009e-01         -0.1257
 386       2.543e+00      -4.348e+00       7.138e-03          -0.099          -0.099          -0.990       2.558e-01         -0.0737
 387       2.302e+00      -4.348e+00       3.975e-02          -0.177          -0.132          -0.975       1.970e-01         -0.0036
 388       2.132e+00      -4.348e+00       8.544e-02          -0.372          -0.216          -0.903       1.328e-01          0.2230
 389       2.045e+00      -4.347e+00       1.510e-01          -0.800          -0.392          -0.454       8.938e-02          0.8016
 390       2.045e+00      -4.347e+00       2.283e-01          -0.809          -0.356           0.468       8.770e-02         -0.1846
 391       2.132e+00      -4.346e+00       2.937e-01          -0.379          -0.140           0.915       1.313e-01         -1.2146
 392       2.302e+00      -4.346e+00       3.399e-01          -0.180          -0.048           0.982       1.957e-01         -0.8821
 393       2.543e+00      -4.346e+00       3.724e-01          -0.097          -0.012           0.995       2.545e-01         -0.6855
 394       2.843e+00      -4.346e+00       3.930e-01          -0.044           0.011           0.999       2.999e-01         -0.5931
 395       3.184e+00      -4.346e+00       4.007e-01          -0.003           0.027           1.000       3.285e-01         -0.5385
 396       3.546e+00      -4.346e+00       3.946e-01           0.036           0.041           0.999       3.387e-01         -0.5018
 397       3.908e+00      -4.346e+00       3.739e-01           0.079           0.056           0.995       3.299e-01         -0.4649
 398       4.249e+00      -4.346e+00       3.381e-01           0.132           0.072           0.989       3.029e-01         -0.4024
 399       4.549e+00      -4.346e+00       2.899e-01           0.189           0.088           0.978       2.589e-01         -0.3067
 400       4.790e+00      -4.347e+00       2.370e-01           0.243           0.102           0.965       1.992e-01         -0.1792
 401       4.960e+00      -4.347e+00       1.917e-01           0.280           0.111           0.954       1.258e-01         -0.0733
 402       5.047e+00      -4.347e+00       1.608e-01           0.463           0.152           0.873       4.668e-02          0.1261
Strip 16
 403       4.821e+00      -3.412e+00       1.070e-01          -0.063          -0.062          -0.996       4.503e-02          0.1259
 404       4.728e+00      -3.412e+00       1.224e-01          -0.196          -0.093          -0.976       1.351e-01          0.3145
 405       4.547e+00      -3.412e+00       1.407e-01          -0.039          -0.054          -0.998       2.119e-01          0.4123
 406       4.288e+00      -3.412e+00       1.269e-01           0.123          -0.011          -0.992       2.808e-01          0.3648
 407       3.968e+00      -3.413e+00       7.156e-02           0.209           0.015          -0.978       3.372e-01          0.2141
 408       3.603e+00      -3.413e+00      -1.648e-03           0.186           0.007          -0.983       3.679e-01         -0.0054
 409       3.216e+00      -3.413e+00      -5.515e-02           0.089          -0.026          -0.996       3.739e-01         -0.1547
 410       2.829e+00      -3.413e+00      -7.467e-02           0.010          -0.055          -0.998       3.620e-01         -0.1708
 411       2.465e+00      -3.413e+00      -6.881e-02          -0.045          -0.077          -0.996       3.309e-01         -0.1355
 412       2.144e+00      -3.413e+00      -4.631e-02          -0.099          -0.099          -0.990       2.814e-01         -0.0864
 413       1.886e+00      -3.413e+00      -1.144e-02          -0.177          -0.132          -0.975       2.167e-01         -0.0220
 414       1.705e+00      -3.413e+00       3.740e-02          -0.372          -0.216          -0.903       1.461e-01          0.1951
 415       1.612e+00      -3.412e+00       1.075e-01          -0.800          -0.392          -0.454       9.834e-02          0.7964
 416       1.612e+00      -3.412e+00       1.901e-01          -0.809          -0.356           0.467       9.643e-02         -0.1304
 417       1.705e+00      -3.412e+00       2.601e-01          -0.379          -0.140           0.915       1.444e-01         -1.1575
 418       1.886e+00      -3.411e+00       3.094e-01          -0.180          -0.048           0.982       2.152e-01         -0.8502
 419       2.144e+00      -3.411e+00       3.442e-01          -0.097          -0.012           0.995       2.799e-01         -0.6651
 420       2.465e+00      -3.411e+00       3.663e-01          -0.044           0.011           0.999       3.298e-01         -0.5788
 421       2.829e+00      -3.411e+00       3.745e-01          -0.003           0.027           1.000       3.614e-01         -0.5281
 422       3.216e+00      -3.411e+00       3.680e-01           0.036           0.041           0.999       3.726e-01         -0.4942
 423       3.603e+00      -3.411e+00       3.458e-01           0.079           0.056           0.995       3.629e-01         -0.4595
 424       3.968e+00      -3.411e+00       3.076e-01           0.132           0.072           0.989       3.332e-01         -0.3988
 425       4.288e+00      -3.412e+00       2.560e-01           0.189           0.088           0.978       2.847e-01         -0.3045
 426       4.547e+00      -3.412e+00       1.995e-01           0.243           0.102           0.965       2.191e-01         -0.1782
 427       4.728e+00      -3.412e+00       1.510e-01           0.280           0.111           0.954       1.384e-01         -0.0734
 428       4.821e+00      -3.412e+00       1.180e-01           0.463           0.152           0.873       5.135e-02          0.1250
Strip 17
 429       4.589e+00      -2.454e+00       6.235e-02          -0.063          -0.062          -0.996       4.904e-02          0.1242
 430       4.490e+00      -2.454e+00       7.880e-02          -0.196          -0.093          -0.976       1.472e-01          0.3133
 431       4.297e+00      -2.454e+00       9.833e-02          -0.039          -0.054          -0.998       2.307e-01          0.4112
 432       4.021e+00      -2.454e+00       8.364e-02           0.123          -0.011          -0.992       3.057e-01          0.3632
 433       3.679e+00      -2.454e+00       2.459e-02           0.209           0.015          -0.978       3.671e-01          0.2111
 434       3.291e+00      -2.455e+00      -5.347e-02           0.186           0.007          -0.983       4.006e-01         -0.0107
 435       2.878e+00      -2.455e+00      -1.105e-01           0.089          -0.026          -0.996       4.071e-01         -0.1622
 436       2.466e+00      -2.455e+00      -1.313e-01           0.010          -0.055          -0.998       3.942e-01         -0.1797
 437       2.077e+00      -2.455e+00      -1.251e-01          -0.045          -0.077          -0.996       3.603e-01         -0.1460
 438       1.735e+00      -2.455e+00      -1.011e-01          -0.099          -0.099          -0.990       3.064e-01         -0.0999
 439       1.460e+00      -2.455e+00      -6.391e-02          -0.177          -0.132          -0.975       2.360e-01         -0.0419
 440       1.267e+00      -2.454e+00      -1.183e-02          -0.372          -0.216          -0.903       1.591e-01          0.1634
 441       1.167e+00      -2.454e+00       6.292e-02          -0.800          -0.392          -0.455       1.071e-01          0.7889
 442       1.167e+00      -2.454e+00       1.510e-01          -0.809          -0.356           0.467       1.050e-01         -0.0675
 443       1.267e+00      -2.454e+00       2.257e-01          -0.379          -0.140           0.915       1.572e-01         -1.0882
 444       1.460e+00      -2.453e+00       2.782e-01          -0.180          -0.048           0.982       2.343e-01         -0.8107
 445       1.735e+00      -2.453e+00       3.154e-01          -0.097          -0.012           0.995       3.047e-01         -0.6396
 446       2.077e+00      -2.453e+00       3.389e-01          -0.044           0.011           0.999       3.591e-01         -0.5613
 447       2.466e+00      -2.453e+00       3.476e-01          -0.003           0.027           1.000       3.935e-01         -0.5160
 448       2.878e+00      -2.453e+00       3.407e-01           0.036           0.041           0.999       4.057e-01         -0.4862
 449       3.291e+00      -2.453e+00       3.171e-01           0.079           0.056           0.995       3.951e-01         -0.4546
 450       3.679e+00      -2.453e+00       2.763e-01           0.132           0.072           0.989       3.628e-01         -0.3961
 451       4.021e+00      -2.454e+00       2.213e-01           0.189           0.088           0.978       3.101e-01         -0.3034
 452       4.297e+00      -2.454e+00       1.610e-01           0.243           0.102           0.965       2.386e-01         -0.1783
 453       4.490e+00      -2.454e+00       1.093e-01           0.280           0.111           0.954       1.507e-01         -0.0745
 454       4.589e+00      -2.454e+00       7.413e-02           0.463           0.152           0.873       5.592e-02          0.1230
Strip 18
 455       4.353e+00      -1.479e+00       1.695e-02          -0.063          -0.062          -0.996       5.286e-02          0.1213
 456       4.248e+00      -1.479e+00       3.444e-02          -0.195          -0.093          -0.976       1.587e-01          0.3110
 457       4.042e+00      -1.479e+00       5.520e-02          -0.039          -0.054          -0.998       2.487e-01          0.4090
 458       3.750e+00      -1.479e+00       3.959e-02           0.123          -0.011          -0.992       3.295e-01          0.3600
 459       3.386e+00      -1.479e+00      -2.320e-02           0.209           0.015          -0.978       3.957e-01          0.2055
 460       2.973e+00      -1.479e+00      -1.062e-01           0.186           0.007          -0.983       4.318e-01         -0.0193
 461       2.534e+00      -1.480e+00      -1.669e-01           0.089          -0.026          -0.996       4.389e-01         -0.1719
 462       2.096e+00      -1.480e+00      -1.890e-01           0.010          -0.055          -0.998       4.249e-01         -0.1887
 463       1.683e+00      -1.480e+00      -1.824e-01          -0.045          -0.077          -0.996       3.884e-01         -0.1547
 464       1.319e+00      -1.480e+00      -1.568e-01          -0.099          -0.099          -0.990       3.303e-01         -0.1107
 465       1.026e+00      -1.480e+00      -1.173e-01          -0.177          -0.132          -0.975       2.544e-01         -0.0598
 466       8.209e-01      -1.479e+00      -6.192e-02          -0.372          -0.216          -0.903       1.715e-01          0.1300
 467       7.152e-01      -1.479e+00       1.756e-02          -0.799          -0.392          -0.455       1.155e-01          0.7806
 468       7.152e-01      -1.479e+00       1.112e-01          -0.810          -0.356           0.466       1.131e-01          0.0116
 469       8.209e-01      -1.479e+00       1.906e-01          -0.379          -0.140           0.915       1.694e-01         -0.9942
 470       1.026e+00      -1.479e+00       2.465e-01          -0.180          -0.048           0.982       2.526e-01         -0.7549
 471       1.319e+00      -1.479e+00       2.860e-01          -0.097          -0.012           0.995       3.285e-01         -0.6036
 472       1.683e+00      -1.479e+00       3.110e-01          -0.044           0.011           0.999       3.871e-01         -0.5375
 473       2.096e+00      -1.479e+00       3.203e-01          -0.003           0.027           1.000       4.241e-01         -0.5015
 474       2.534e+00      -1.479e+00       3.129e-01           0.036           0.041           0.999       4.373e-01         -0.4789
 475       2.973e+00      -1.479e+00       2.878e-01           0.079           0.056           0.995       4.260e-01         -0.4526
 476       3.386e+00      -1.479e+00       2.444e-01           0.132           0.072           0.989       3.911e-01         -0.3974
 477       3.750e+00      -1.479e+00       1.859e-01           0.189           0.088           0.978       3.343e-01         -0.3061
 478       4.042e+00      -1.479e+00       1.218e-01           0.243           0.102           0.965       2.572e-01         -0.1814
 479       4.248e+00      -1.479e+00       6.687e-02           0.280           0.111           0.954       1.624e-01         -0.0781
 480       4.353e+00      -1.479e+00       2.948e-02           0.463           0.152           0.873       6.029e-02          0.1189
Strip 19
 481       4.115e+00      -4.942e-01      -2.892e-02          -0.063          -0.062          -0.996       5.642e-02          0.1168
 482       4.003e+00      -4.942e-01      -1.038e-02          -0.195          -0.093          -0.976       1.694e-01          0.3078
 483       3.786e+00      -4.942e-01       1.164e-02          -0.039          -0.054          -0.998       2.655e-01          0.4044
 484       3.475e+00      -4.942e-01      -4.920e-03           0.123          -0.011          -0.992       3.517e-01          0.3491
 485       3.090e+00      -4.942e-01      -7.148e-02           0.209           0.015          -0.978       4.223e-01          0.1857
 486       2.652e+00      -4.943e-01      -1.595e-01           0.186           0.007          -0.983       4.608e-01         -0.0426
 487       2.187e+00      -4.943e-01      -2.238e-01           0.089          -0.026          -0.996       4.684e-01         -0.1872
 488       1.722e+00      -4.943e-01      -2.472e-01           0.010          -0.055          -0.998       4.536e-01         -0.1908
 489       1.284e+00      -4.943e-01      -2.402e-01          -0.045          -0.077          -0.996       4.146e-01         -0.1462
 490       8.987e-01      -4.943e-01      -2.132e-01          -0.099          -0.099          -0.990       3.525e-01         -0.0971
 491       5.881e-01      -4.943e-01      -1.712e-01          -0.177          -0.132          -0.975       2.716e-01         -0.0509
 492       3.705e-01      -4.943e-01      -1.125e-01          -0.371          -0.216          -0.903       1.831e-01          0.1108
 493       2.584e-01      -4.942e-01      -2.827e-02          -0.799          -0.392          -0.456       1.233e-01          0.7665
 494       2.584e-01      -4.941e-01       7.104e-02          -0.810          -0.357           0.466       1.207e-01          0.1381
 495       3.705e-01      -4.941e-01       1.552e-01          -0.379          -0.140           0.915       1.808e-01         -0.8129
 496       5.881e-01      -4.941e-01       2.144e-01          -0.180          -0.048           0.982       2.695e-01         -0.6387
 497       8.987e-01      -4.940e-01       2.563e-01          -0.097          -0.012           0.995       3.506e-01         -0.5352
 498       1.284e+00      -4.940e-01       2.828e-01          -0.044           0.011           0.999       4.131e-01         -0.4972
 499       1.722e+00      -4.940e-01       2.926e-01          -0.003           0.027           1.000       4.527e-01         -0.4818
 500       2.187e+00      -4.940e-01       2.848e-01           0.036           0.041           0.999       4.668e-01         -0.4760
 501       2.652e+00      -4.940e-01       2.582e-01           0.079           0.056           0.995       4.547e-01         -0.4633
 502       3.090e+00      -4.941e-01       2.122e-01           0.132           0.072           0.989       4.175e-01         -0.4160
 503       3.475e+00      -4.941e-01       1.502e-01           0.189           0.088           0.978       3.568e-01         -0.3252
 504       3.786e+00      -4.941e-01       8.228e-02           0.243           0.102           0.965       2.745e-01         -0.1966
 505       4.003e+00      -4.942e-01       2.400e-02           0.280           0.111           0.954       1.734e-01         -0.0891
 506       4.115e+00      -4.942e-01      -1.564e-02           0.463           0.152           0.873       6.436e-02          0.1101
Strip 20
 507       4.115e+00       4.942e-01      -2.892e-02          -0.063           0.062          -0.996       5.642e-02          0.1168
 508       4.003e+00       4.942e-01      -1.038e-02          -0.195           0.093          -0.976       1.694e-01          0.3078
 509       3.786e+00       4.942e-01       1.164e-02          -0.039           0.054          -0.998       2.655e-01          0.4044
 510       3.475e+00       4.942e-01      -4.920e-03           0.123           0.011          -0.992       3.517e-01          0.3491
 511       3.090e+00       4.942e-01      -7.148e-02           0.209          -0.015          -0.978       4.223e-01          0.1857
 512       2.652e+00       4.943e-01      -1.595e-01           0.186          -0.007          -0.983       4.608e-01         -0.0426
 513       2.187e+00       4.943e-01      -2.238e-01           0.089           0.026          -0.996       4.684e-01         -0.1872
 514       1.722e+00       4.943e-01      -2.472e-01           0.010           0.055          -0.998       4.536e-01         -0.1908
 515       1.284e+00       4.943e-01      -2.402e-01          -0.045           0.077          -0.996       4.146e-01         -0.1462
 516       8.987e-01       4.943e-01      -2.132e-01          -0.099           0.099          -0.990       3.525e-01         -0.0971
 517       5.881e-01       4.943e-01      -1.712e-01          -0.177           0.132          -0.975       2.716e-01         -0.0509
 518       3.705e-01       4.943e-01      -1.125e-01          -0.371           0.216          -0.903       1.831e-01          0.1108
 519       2.584e-01       4.942e-01      -2.827e-02          -0.799           0.392          -0.456       1.233e-01          0.7665
 520       2.584e-01       4.941e-01       7.104e-02          -0.810           0.357           0.466       1.207e-01          0.1381
 521       3.705e-01       4.941e-01       1.552e-01          -0.379           0.140           0.915       1.808e-01         -0.8129
 522       5.881e-01       4.941e-01       2.144e-01          -0.180           0.048           0.982       2.695e-01         -0.6387
 523       8.987e-01       4.940e-01       2.563e-01          -0.097           0.012           0.995       3.506e-01         -0.5352
 524       1.284e+00       4.940e-01       2.828e-01          -0.044          -0.011           0.999       4.131e-01         -0.4972
 525       1.722e+00       4.940e-01       2.926e-01          -0.003          -0.027           1.000       4.527e-01         -0.4818
 526       2.187e+00       4.940e-01       2.848e-01           0.036          -0.041           0.999       4.668e-01         -0.4760
 527       2.652e+00       4.940e-01       2.582e-01           0.079          -0.056           0.995       4.547e-01         -0.4633
 528       3.090e+00       4.941e-01       2.122e-01           0.132          -0.072           0.989       4.175e-01         -0.4160
 529       3.475e+00       4.941e-01       1.502e-01           0.189          -0.088           0.978       3.568e-01         -0.3252
 530       3.786e+00       4.941e-01       8.228e-02           0.243          -0.102           0.965       2.745e-01         -0.1966
 531       4.003e+00       4.942e-01       2.400e-02           0.280          -0.111           0.954       1.734e-01         -0.0891
 532       4.115e+00       4.942e-01      -1.564e-02           0.463          -0.152           0.873       6.436e-02          0.1101
Strip 21
 533       4.353e+00       1.479e+00       1.695e-02          -0.063           0.062          -0.996       5.286e-02          0.1213
 534       4.248e+00       1.479e+00       3.444e-02          -0.195           0.093          -0.976       1.587e-01          0.3110
 535       4.042e+00       1.479e+00       5.520e-02          -0.039           0.054          -0.998       2.487e-01          0.4090
 536       3.750e+00       1.479e+00       3.959e-02           0.123           0.011          -0.992       3.295e-01          0.3600
 537       3.386e+00       1.479e+00      -2.320e-02           0.209          -0.015          -0.978       3.957e-01          0.2055
 538       2.973e+00       1.479e+00      -1.062e-01           0.186          -0.007          -0.983       4.318e-01         -0.0193
 539       2.534e+00       1.480e+00      -1.669e-01           0.089           0.026          -0.996       4.389e-01         -0.1719
 540       2.096e+00       1.480e+00      -1.890e-01           0.010           0.055          -0.998       4.249e-01         -0.1887
 541       1.683e+00       1.480e+00      -1.824e-01          -0.045           0.077          -0.996       3.884e-01         -0.1547
 542       1.319e+00       1.480e+00      -1.568e-01          -0.099           0.099          -0.990       3.303e-01         -0.1107
 543       1.026e+00       1.480e+00      -1.173e-01          -0.177           0.132          -0.975       2.544e-01         -0.0598
 544       8.209e-01       1.479e+00      -6.192e-02          -0.372           0.216          -0.903       1.715e-01          0.1300
 545       7.152e-01       1.479e+00       1.756e-02          -0.799           0.392          -0.455       1.155e-01          0.7806
 546       7.152e-01       1.479e+00       1.112e-01          -0.810           0.356           0.466       1.131e-01          0.0116
 547       8.209e-01       1.479e+00       1.906e-01          -0.379           0.140           0.915       1.694e-01         -0.9942
 548       1.026e+00       1.479e+00       2.465e-01          -0.180           0.048           0.982       2.526e-01         -0.7549
 549       1.319e+00       1.479e+00       2.860e-01          -0.097           0.012           0.995       3.285e-01         -0.6036
 550       1.683e+00       1.479e+00       3.110e-01          -0.044          -0.011           0.999       3.871e-01         -0.5375
 551       2.096e+00       1.479e+00       3.203e-01          -0.003          -0.027           1.000       4.241e-01         -0.5015
 552       2.534e+00       1.479e+00       3.129e-01           0.036          -0.041           0.999       4.373e-01         -0.4789
 553       2.973e+00       1.479e+00       2.878e-01           0.079          -0.056           0.995       4.260e-01         -0.4526
 554       3.386e+00       1.479e+00       2.444e-01           0.132          -0.072           0.989       3.911e-01         -0.3974
 555       3.750e+00       1.479e+00       1.859e-01           0.189          -0.088           0.978       3.343e-01         -0.3061
 556       4.042e+00       1.479e+00       1.218e-01           0.243          -0.102           0.965       2.572e-01         -0.1814
 557       4.248e+00       1.479e+00       6.687e-02           0.280          -0.111           0.954       1.624e-01         -0.0781
 558       4.353e+00       1.479e+00       2.948e-02           0.463          -0.152           0.873       6.029e-02          0.1189
Strip 22
 559       4.589e+00       2.454e+00       6.235e-02          -0.063           0.062          -0.996       4.904e-02          0.1242
 560       4.490e+00       2.454e+00       7.880e-02          -0.196           0.093          -0.976       1.472e-01          0.3133
 561       4.297e+00       2.454e+00       9.833e-02          -0.039           0.054          -0.998       2.307e-01          0.4112
 562       4.021e+00       2.454e+00       8.364e-02           0.123           0.011          -0.992       3.057e-01          0.3632
 563       3.679e+00       2.454e+00       2.459e-02           0.209          -0.015          -0.978       3.671e-01          0.2111
 564       3.291e+00       2.455e+00      -5.347e-02           0.186          -0.007          -0.983       4.006e-01         -0.0107
 565       2.878e+00       2.455e+00      -1.105e-01           0.089           0.026          -0.996       4.071e-01         -0.1622
 566       2.466e+00       2.455e+00      -1.313e-01           0.010           0.055          -0.998       3.942e-01         -0.1797
 567       2.077e+00       2.455e+00      -1.251e-01          -0.045           0.077          -0.996       3.603e-01         -0.1460
 568       1.735e+00       2.455e+00      -1.011e-01          -0.099           0.099          -0.990       3.064e-01         -0.0999
[...]
 852       5.612e+00       1.075e+01       3.589e-01           0.010           0.055          -0.998       8.182e-02         -0.1523
 853       5.432e+00       1.075e+01       3.618e-01          -0.045           0.077          -0.996       7.474e-02         -0.1074
 854       5.274e+00       1.075e+01       3.729e-01          -0.099           0.099          -0.990       6.350e-02         -0.0432
 855       5.147e+00       1.075e+01       3.901e-01          -0.177           0.132          -0.975       4.887e-02          0.0476
 856       5.057e+00       1.075e+01       4.141e-01          -0.373           0.217          -0.902       3.287e-02          0.3044
 857       5.011e+00       1.074e+01       4.486e-01          -0.804           0.393          -0.446       2.212e-02          0.8053
 858       5.011e+00       1.074e+01       4.893e-01          -0.805           0.354           0.475       2.189e-02         -0.3675
 859       5.057e+00       1.074e+01       5.238e-01          -0.377           0.140           0.916       3.277e-02         -1.3788
 860       5.147e+00       1.074e+01       5.481e-01          -0.180           0.048           0.983       4.874e-02         -0.9641
 861       5.274e+00       1.074e+01       5.652e-01          -0.097           0.011           0.995       6.332e-02         -0.7298
 862       5.432e+00       1.074e+01       5.761e-01          -0.044          -0.011           0.999       7.456e-02         -0.6164
 863       5.612e+00       1.074e+01       5.801e-01          -0.003          -0.027           1.000       8.166e-02         -0.5477
 864       5.803e+00       1.074e+01       5.769e-01           0.036          -0.041           0.999       8.416e-02         -0.5015
 865       5.993e+00       1.074e+01       5.660e-01           0.079          -0.056           0.995       8.194e-02         -0.4593
 866       6.173e+00       1.074e+01       5.472e-01           0.132          -0.072           0.989       7.520e-02         -0.3950
 867       6.331e+00       1.074e+01       5.218e-01           0.190          -0.088           0.978       6.425e-02         -0.2999
 868       6.459e+00       1.074e+01       4.939e-01           0.243          -0.102           0.965       4.942e-02         -0.1735
 869       6.548e+00       1.074e+01       4.701e-01           0.281          -0.111           0.953       3.121e-02         -0.0689
 870       6.594e+00       1.074e+01       4.538e-01           0.465          -0.152           0.872       1.157e-02          0.1328
Strip 34
 871       6.690e+00       1.114e+01       4.669e-01          -0.063           0.062          -0.996       7.950e-03          0.1238
 872       6.647e+00       1.114e+01       4.740e-01          -0.196           0.093          -0.976       2.383e-02          0.3063
 873       6.562e+00       1.114e+01       4.826e-01          -0.039           0.054          -0.998       3.741e-02          0.3991
 874       6.442e+00       1.114e+01       4.761e-01           0.123           0.011          -0.992       4.964e-02          0.3502
 875       6.293e+00       1.114e+01       4.504e-01           0.209          -0.015          -0.978       5.967e-02          0.2018
 876       6.123e+00       1.114e+01       4.163e-01           0.185          -0.007          -0.983       6.510e-02         -0.0118
 877       5.943e+00       1.114e+01       3.915e-01           0.089           0.026          -0.996       6.611e-02         -0.1550
 878       5.763e+00       1.114e+01       3.824e-01           0.010           0.055          -0.998       6.395e-02         -0.1658
 879       5.593e+00       1.114e+01       3.851e-01          -0.045           0.077          -0.996       5.841e-02         -0.1228
 880       5.444e+00       1.114e+01       3.956e-01          -0.099           0.099          -0.990       4.963e-02         -0.0603
 881       5.323e+00       1.114e+01       4.118e-01          -0.177           0.132          -0.975       3.819e-02          0.0278
 882       5.239e+00       1.114e+01       4.345e-01          -0.374           0.217          -0.902       2.568e-02          0.2805
 883       5.196e+00       1.114e+01       4.671e-01          -0.804           0.394          -0.445       1.728e-02          0.8018
 884       5.196e+00       1.114e+01       5.055e-01          -0.805           0.354           0.476       1.712e-02         -0.3265
 885       5.239e+00       1.114e+01       5.381e-01          -0.377           0.139           0.916       2.562e-02         -1.3311
 886       5.323e+00       1.114e+01       5.610e-01          -0.180           0.048           0.983       3.810e-02         -0.9326
 887       5.444e+00       1.114e+01       5.772e-01          -0.097           0.011           0.995       4.950e-02         -0.7033
 888       5.593e+00       1.114e+01       5.874e-01          -0.044          -0.011           0.999       5.828e-02         -0.5906
 889       5.763e+00       1.114e+01       5.913e-01          -0.003          -0.027           1.000       6.382e-02         -0.5214
 890       5.943e+00       1.114e+01       5.882e-01           0.036          -0.041           0.999       6.578e-02         -0.4756
 891       6.123e+00       1.114e+01       5.779e-01           0.079          -0.056           0.995       6.404e-02         -0.4354
 892       6.293e+00       1.114e+01       5.602e-01           0.132          -0.072           0.989       5.877e-02         -0.3753
 893       6.442e+00       1.114e+01       5.362e-01           0.190          -0.088           0.978       5.021e-02         -0.2859
 894       6.562e+00       1.114e+01       5.099e-01           0.243          -0.102           0.965       3.862e-02         -0.1652
 895       6.647e+00       1.114e+01       4.873e-01           0.281          -0.111           0.953       2.439e-02         -0.0652
 896       6.690e+00       1.114e+01       4.720e-01           0.465          -0.152           0.872       9.043e-03          0.1353
Strip 35
 897       6.768e+00       1.146e+01       4.818e-01          -0.063           0.062          -0.996       5.943e-03          0.1151
 898       6.726e+00       1.146e+01       4.886e-01          -0.196           0.093          -0.976       1.782e-02          0.2943
 899       6.646e+00       1.146e+01       4.967e-01          -0.039           0.054          -0.998       2.796e-02          0.3850
 900       6.531e+00       1.146e+01       4.906e-01           0.122           0.011          -0.992       3.711e-02          0.3361
 901       6.389e+00       1.146e+01       4.661e-01           0.209          -0.015          -0.978       4.461e-02          0.1887
 902       6.228e+00       1.146e+01       4.337e-01           0.185          -0.007          -0.983       4.868e-02         -0.0237
 903       6.056e+00       1.146e+01       4.100e-01           0.089           0.026          -0.996       4.942e-02         -0.1673
 904       5.884e+00       1.147e+01       4.014e-01           0.010           0.055          -0.998       4.781e-02         -0.1814
 905       5.723e+00       1.146e+01       4.040e-01          -0.045           0.077          -0.996       4.366e-02         -0.1437
 906       5.581e+00       1.146e+01       4.139e-01          -0.099           0.099          -0.990       3.709e-02         -0.0866
 907       5.466e+00       1.146e+01       4.294e-01          -0.178           0.132          -0.975       2.854e-02         -0.0044
 908       5.386e+00       1.146e+01       4.510e-01          -0.374           0.217          -0.902       1.919e-02          0.2405
 909       5.344e+00       1.146e+01       4.820e-01          -0.805           0.394          -0.444       1.291e-02          0.7921
 910       5.344e+00       1.146e+01       5.186e-01          -0.805           0.354           0.477       1.280e-02         -0.2667
 911       5.386e+00       1.146e+01       5.496e-01          -0.377           0.139           0.916       1.916e-02         -1.2603
 912       5.466e+00       1.146e+01       5.715e-01          -0.180           0.048           0.983       2.849e-02         -0.8838
 913       5.581e+00       1.146e+01       5.869e-01          -0.097           0.011           0.995       3.700e-02         -0.6604
 914       5.723e+00       1.146e+01       5.966e-01          -0.044          -0.011           0.999       4.357e-02         -0.5473
 915       5.884e+00       1.146e+01       6.003e-01          -0.003          -0.027           1.000       4.771e-02         -0.4772
 916       6.056e+00       1.146e+01       5.974e-01           0.036          -0.041           0.999       4.917e-02         -0.4328
 917       6.228e+00       1.146e+01       5.876e-01           0.079          -0.056           0.995       4.787e-02         -0.3975
 918       6.389e+00       1.146e+01       5.706e-01           0.132          -0.072           0.989       4.393e-02         -0.3455
 919       6.531e+00       1.146e+01       5.478e-01           0.190          -0.088           0.978       3.753e-02         -0.2666
 920       6.646e+00       1.146e+01       5.228e-01           0.243          -0.102           0.965       2.886e-02         -0.1563
 921       6.726e+00       1.146e+01       5.013e-01           0.281          -0.111           0.953       1.823e-02         -0.0652
 922       6.768e+00       1.146e+01       4.867e-01           0.465          -0.152           0.872       6.758e-03          0.1330
Strip 36
 923       6.826e+00       1.170e+01       4.931e-01          -0.063           0.062          -0.996       4.112e-03          0.0840
 924       6.787e+00       1.170e+01       4.997e-01          -0.196           0.093          -0.976       1.233e-02          0.2569
 925       6.709e+00       1.170e+01       5.075e-01          -0.039           0.054          -0.998       1.935e-02          0.3454
 926       6.599e+00       1.170e+01       5.016e-01           0.122           0.011          -0.992       2.568e-02          0.3015
 927       6.462e+00       1.171e+01       4.780e-01           0.209          -0.015          -0.978       3.088e-02          0.1635
 928       6.307e+00       1.171e+01       4.468e-01           0.185          -0.007          -0.983       3.369e-02         -0.0377
 929       6.142e+00       1.171e+01       4.240e-01           0.089           0.026          -0.996       3.420e-02         -0.1734
 930       5.977e+00       1.171e+01       4.157e-01           0.010           0.055          -0.998       3.308e-02         -0.1889
 931       5.821e+00       1.171e+01       4.182e-01          -0.045           0.077          -0.996       3.021e-02         -0.1623
 932       5.684e+00       1.171e+01       4.278e-01          -0.099           0.099          -0.990       2.567e-02         -0.1215
 933       5.574e+00       1.171e+01       4.427e-01          -0.178           0.132          -0.975       1.975e-02         -0.0553
 934       5.497e+00       1.171e+01       4.635e-01          -0.374           0.217          -0.902       1.327e-02          0.1740
 935       5.457e+00       1.170e+01       4.933e-01          -0.805           0.394          -0.444       8.930e-03          0.7639
 936       5.457e+00       1.170e+01       5.285e-01          -0.804           0.354           0.478       8.863e-03         -0.1947
 937       5.497e+00       1.170e+01       5.584e-01          -0.377           0.139           0.916       1.327e-02         -1.1652
 938       5.574e+00       1.170e+01       5.794e-01          -0.180           0.048           0.983       1.972e-02         -0.8122
 939       5.684e+00       1.170e+01       5.942e-01          -0.097           0.011           0.995       2.561e-02         -0.5923
 940       5.821e+00       1.170e+01       6.036e-01          -0.044          -0.011           0.999       3.015e-02         -0.4776
 941       5.977e+00       1.170e+01       6.071e-01          -0.003          -0.027           1.000       3.302e-02         -0.4103
 942       6.142e+00       1.170e+01       6.043e-01           0.036          -0.041           0.999       3.402e-02         -0.3728
 943       6.307e+00       1.170e+01       5.949e-01           0.079          -0.056           0.995       3.312e-02         -0.3479
 944       6.462e+00       1.170e+01       5.786e-01           0.132          -0.072           0.989       3.040e-02         -0.3105
 945       6.599e+00       1.170e+01       5.566e-01           0.190          -0.088           0.978       2.597e-02         -0.2501
 946       6.709e+00       1.170e+01       5.325e-01           0.243          -0.102           0.965       1.997e-02         -0.1599
 947       6.787e+00       1.170e+01       5.119e-01           0.281          -0.111           0.953       1.261e-02         -0.0873
 948       6.826e+00       1.170e+01       4.978e-01           0.465          -0.152           0.872       4.675e-03          0.1071
Strip 37
 949       6.866e+00       1.187e+01       5.007e-01          -0.063           0.062          -0.996       2.413e-03         -0.0519
 950       6.827e+00       1.187e+01       5.071e-01          -0.196           0.093          -0.976       7.233e-03          0.1010
 951       6.752e+00       1.187e+01       5.147e-01          -0.039           0.054          -0.998       1.136e-02          0.2028
 952       6.644e+00       1.187e+01       5.090e-01           0.122           0.011          -0.992       1.507e-02          0.2037
 953       6.511e+00       1.187e+01       4.860e-01           0.209          -0.015          -0.978       1.812e-02          0.1102
 954       6.360e+00       1.187e+01       4.556e-01           0.185          -0.007          -0.983       1.977e-02         -0.0550
 955       6.199e+00       1.187e+01       4.334e-01           0.089           0.026          -0.996       2.007e-02         -0.1652
 956       6.038e+00       1.187e+01       4.253e-01           0.010           0.055          -0.998       1.941e-02         -0.1752
 957       5.887e+00       1.187e+01       4.278e-01          -0.045           0.077          -0.996       1.773e-02         -0.1593
 958       5.754e+00       1.187e+01       4.371e-01          -0.099           0.099          -0.990       1.506e-02         -0.1447
 959       5.646e+00       1.187e+01       4.516e-01          -0.178           0.132          -0.975       1.159e-02         -0.1217
 960       5.571e+00       1.187e+01       4.718e-01          -0.374           0.217          -0.902       7.787e-03          0.0544
 961       5.532e+00       1.187e+01       5.009e-01          -0.805           0.394          -0.443       5.239e-03          0.6572
 962       5.532e+00       1.187e+01       5.352e-01          -0.804           0.353           0.478       5.203e-03         -0.1434
 963       5.571e+00       1.186e+01       5.642e-01          -0.377           0.139           0.916       7.787e-03         -1.0384
 964       5.646e+00       1.186e+01       5.847e-01          -0.180           0.048           0.983       1.157e-02         -0.6979
 965       5.754e+00       1.186e+01       5.991e-01          -0.097           0.011           0.995       1.503e-02         -0.4847
 966       5.887e+00       1.186e+01       6.082e-01          -0.044          -0.011           0.999       1.769e-02         -0.3838
 967       6.038e+00       1.186e+01       6.116e-01          -0.003          -0.027           1.000       1.938e-02         -0.3318
 968       6.199e+00       1.186e+01       6.089e-01           0.036          -0.041           0.999       1.997e-02         -0.3065
 969       6.360e+00       1.186e+01       5.998e-01           0.079          -0.056           0.995       1.944e-02         -0.2963
 970       6.511e+00       1.186e+01       5.839e-01           0.132          -0.072           0.989       1.784e-02         -0.2888
 971       6.644e+00       1.186e+01       5.625e-01           0.190          -0.088           0.978       1.524e-02         -0.2811
 972       6.752e+00       1.187e+01       5.391e-01           0.243          -0.102           0.965       1.172e-02         -0.2573
 973       6.827e+00       1.187e+01       5.189e-01           0.281          -0.111           0.953       7.400e-03         -0.2417
 974       6.866e+00       1.187e+01       5.053e-01           0.465          -0.152           0.872       2.743e-03         -0.0599
Strip 38
 975       6.885e+00       1.195e+01       5.045e-01          -0.063           0.062          -0.996       7.953e-04         -0.2091
 976       6.847e+00       1.195e+01       5.108e-01          -0.196           0.093          -0.976       2.384e-03         -0.1153
 977       6.773e+00       1.195e+01       5.183e-01          -0.039           0.054          -0.998       3.742e-03         -0.0299
 978       6.667e+00       1.195e+01       5.126e-01           0.122           0.011          -0.992       4.967e-03          0.0272
 979       6.536e+00       1.195e+01       4.900e-01           0.209          -0.015          -0.978       5.972e-03          0.0136
 980       6.386e+00       1.195e+01       4.600e-01           0.185          -0.007          -0.983       6.516e-03         -0.0762
 981       6.228e+00       1.195e+01       4.382e-01           0.089           0.026          -0.996       6.616e-03         -0.1418
 982       6.069e+00       1.195e+01       4.302e-01           0.010           0.055          -0.998       6.398e-03         -0.1445
 983       5.920e+00       1.195e+01       4.326e-01          -0.045           0.077          -0.996       5.843e-03         -0.1336
 984       5.789e+00       1.195e+01       4.418e-01          -0.099           0.099          -0.990       4.963e-03         -0.1270
 985       5.683e+00       1.195e+01       4.560e-01          -0.178           0.132          -0.975       3.818e-03         -0.1214
 986       5.608e+00       1.195e+01       4.760e-01          -0.374           0.217          -0.902       2.566e-03         -0.0039
 987       5.570e+00       1.195e+01       5.047e-01          -0.805           0.394          -0.443       1.726e-03          0.5492
 988       5.570e+00       1.195e+01       5.385e-01          -0.804           0.353           0.478       1.715e-03         -0.0648
 989       5.608e+00       1.195e+01       5.671e-01          -0.376           0.139           0.916       2.567e-03         -0.8411
 990       5.683e+00       1.195e+01       5.873e-01          -0.180           0.048           0.983       3.814e-03         -0.5461
 991       5.789e+00       1.194e+01       6.016e-01          -0.097           0.011           0.995       4.953e-03         -0.3779
 992       5.920e+00       1.194e+01       6.106e-01          -0.044          -0.011           0.999       5.832e-03         -0.3070
 993       6.069e+00       1.194e+01       6.139e-01          -0.003          -0.027           1.000       6.386e-03         -0.2696
 994       6.228e+00       1.194e+01       6.113e-01           0.036          -0.041           0.999       6.580e-03         -0.2479
 995       6.386e+00       1.194e+01       6.022e-01           0.079          -0.056           0.995       6.406e-03         -0.2352
 996       6.536e+00       1.195e+01       5.866e-01           0.132          -0.072           0.989       5.878e-03         -0.2316
 997       6.667e+00       1.195e+01       5.654e-01           0.190          -0.088           0.978       5.021e-03         -0.2584
 998       6.773e+00       1.195e+01       5.423e-01           0.243          -0.102           0.965       3.862e-03         -0.3194
 999       6.847e+00       1.195e+01       5.225e-01           0.281          -0.111           0.953       2.438e-03         -0.3861
1000       6.885e+00       1.195e+01       5.090e-01           0.465          -0.152           0.872       9.040e-04         -0.2375










