xflr5 v6.61

Plane Name
T1-10.0 m/s-Panel-0.0kg-x0.0m-Inviscid
QInf  =   10.000000 m/s
Alpha =    1.000000
Beta  =    0.000°
Phi   =    0.000°
Ctrl  =    0.000
CL    =    0.463274
Cy    =    0.000000
Cd    =    0.007574     ICd   =    0.007574     PCd   =    0.000000
Cl   = 6.34941e-16
Cm   =   -0.581213
ICn   =   -0.000000     PCn   =   -0.000000 
XCP   =    3.876955     YCP   =   -0.000000     ZCP   =    0.410638  
XNP   =    0.000000
Bending = 4297.162088

Main Wing
  y-span        Chord      Ai         Cl        PCd          ICd        CmGeom    CmAirf@chord/4    XTrtop    XTrBot      XCP       BM
  -11.9595     1.3346    -5.662    0.169358    0.000000    0.016794   -0.952884   -0.048021     0.0000    0.0000    0.4823    0.0000
  -11.8778     1.3530    -3.969    0.273876    0.000000    0.019006   -1.336628   -0.074647     0.0000    0.0000    0.5048    0.0478
  -11.7150     1.3896    -2.778    0.357812    0.000000    0.017362   -1.589165   -0.084852     0.0000    0.0000    0.4834    0.6099
  -11.4722     1.4442    -2.001    0.417480    0.000000    0.014585   -1.747550   -0.094124     0.0000    0.0000    0.4727    2.9991
  -11.1509     1.5165    -1.520    0.458027    0.000000    0.012156   -1.794045   -0.100718     0.0000    0.0000    0.4665    9.6172
  -10.7535     1.6059    -1.213    0.483902    0.000000    0.010246   -1.749726   -0.104988     0.0000    0.0000    0.4630   24.0834
  -10.2827     1.7118    -1.014    0.498846    0.000000    0.008826   -1.643953   -0.107570     0.0000    0.0000    0.4614   51.2796
   -9.7416     1.8336    -0.888    0.505937    0.000000    0.007845   -1.503021   -0.109066     0.0000    0.0000    0.4612   97.3331
   -9.1339     1.9702    -0.816    0.507472    0.000000    0.007227   -1.346431   -0.109903     0.0000    0.0000    0.4622   169.5464
   -8.4639     2.1210    -0.781    0.505038    0.000000    0.006884   -1.187183   -0.110345     0.0000    0.0000    0.4641   276.2684
   -7.7361     2.2847    -0.773    0.499668    0.000000    0.006741   -1.033226   -0.110550     0.0000    0.0000    0.4670   426.6974
   -6.9554     2.4603    -0.784    0.492005    0.000000    0.006734   -0.889131   -0.110605     0.0000    0.0000    0.4707   630.6058
   -6.1271     2.6466    -0.809    0.482417    0.000000    0.006814   -0.757183   -0.110564     0.0000    0.0000    0.4753   897.9812
   -5.2571     2.8424    -0.844    0.471073    0.000000    0.006942   -0.638251   -0.110467     0.0000    0.0000    0.4809   1238.5866
   -4.3511     3.0462    -0.886    0.457977    0.000000    0.007079   -0.532366   -0.110347     0.0000    0.0000    0.4877   1661.4477
   -3.4154     3.2567    -0.929    0.442989    0.000000    0.007181   -0.439103   -0.110261     0.0000    0.0000    0.4960   2174.2808
   -2.4564     3.4724    -0.967    0.425797    0.000000    0.007184   -0.357910   -0.110332     0.0000    0.0000    0.5069   2782.8819
   -1.4806     3.6919    -0.979    0.405773    0.000000    0.006931   -0.288350   -0.110840     0.0000    0.0000    0.5216   3490.4959
   -0.4947     3.9137    -0.864    0.381160    0.000000    0.005742   -0.230933   -0.112931     0.0000    0.0000    0.5450   4297.1621
    0.4947     3.9137    -0.864    0.381160    0.000000    0.005742   -0.230933   -0.112931     0.0000    0.0000    0.5450   4297.1621
    1.4806     3.6919    -0.979    0.405773    0.000000    0.006931   -0.288350   -0.110840     0.0000    0.0000    0.5216   3490.4959
    2.4564     3.4724    -0.967    0.425797    0.000000    0.007184   -0.357910   -0.110332     0.0000    0.0000    0.5069   2782.8819
    3.4154     3.2567    -0.929    0.442989    0.000000    0.007181   -0.439103   -0.110261     0.0000    0.0000    0.4960   2174.2808
    4.3511     3.0462    -0.886    0.457977    0.000000    0.007079   -0.532366   -0.110347     0.0000    0.0000    0.4877   1661.4477
    5.2571     2.8424    -0.844    0.471073    0.000000    0.006942   -0.638251   -0.110467     0.0000    0.0000    0.4809   1238.5866
    6.1271     2.6466    -0.809    0.482417    0.000000    0.006814   -0.757183   -0.110564     0.0000    0.0000    0.4753   897.9812
    6.9554     2.4603    -0.784    0.492005    0.000000    0.006734   -0.889131   -0.110605     0.0000    0.0000    0.4707   630.6058
    7.7361     2.2847    -0.773    0.499668    0.000000    0.006741   -1.033226   -0.110550     0.0000    0.0000    0.4670   426.6974
    8.4639     2.1210    -0.781    0.505038    0.000000    0.006884   -1.187183   -0.110345     0.0000    0.0000    0.4641   276.2684
    9.1339     1.9702    -0.816    0.507472    0.000000    0.007227   -1.346431   -0.109903     0.0000    0.0000    0.4622   169.5464
    9.7416     1.8336    -0.888    0.505937    0.000000    0.007845   -1.503021   -0.109066     0.0000    0.0000    0.4612   97.3331
   10.2827     1.7118    -1.014    0.498846    0.000000    0.008826   -1.643953   -0.107570     0.0000    0.0000    0.4614   51.2796
   10.7535     1.6059    -1.213    0.483902    0.000000    0.010246   -1.749726   -0.104988     0.0000    0.0000    0.4630   24.0834
   11.1509     1.5165    -1.520    0.458027    0.000000    0.012156   -1.794045   -0.100718     0.0000    0.0000    0.4665    9.6172
   11.4722     1.4442    -2.001    0.417480    0.000000    0.014585   -1.747550   -0.094124     0.0000    0.0000    0.4727    2.9991
   11.7150     1.3896    -2.778    0.357812    0.000000    0.017362   -1.589165   -0.084852     0.0000    0.0000    0.4834    0.6099
   11.8778     1.3530    -3.969    0.273876    0.000000    0.019006   -1.336628   -0.074647     0.0000    0.0000    0.5048    0.0478
   11.9595     1.3346    -5.662    0.169358    0.000000    0.016794   -0.952884   -0.048021     0.0000    0.0000    0.4823    0.0000


Main Wing Cp Coefficients
 Panel     CtrlPt.x        CtrlPt.y        CtrlPt.z       Nx      Ny       Nz        Area       Cp
Main WingCp Coefficients
Strip 1
  13       6.885e+00      -1.195e+01       5.045e-01          -0.063          -0.062          -0.996       7.953e-04         -0.1332
  14       6.847e+00      -1.195e+01       5.108e-01          -0.196          -0.093          -0.976       2.384e-03         -0.0318
  15       6.773e+00      -1.195e+01       5.183e-01          -0.039          -0.054          -0.998       3.742e-03          0.0504
  16       6.667e+00      -1.195e+01       5.126e-01           0.122          -0.011          -0.992       4.967e-03          0.0852
  17       6.536e+00      -1.195e+01       4.900e-01           0.209           0.015          -0.978       5.972e-03          0.0473
  18       6.386e+00      -1.195e+01       4.600e-01           0.185           0.007          -0.983       6.516e-03         -0.0610
  19       6.228e+00      -1.195e+01       4.382e-01           0.089          -0.026          -0.996       6.616e-03         -0.1392
  20       6.069e+00      -1.195e+01       4.302e-01           0.010          -0.055          -0.998       6.398e-03         -0.1489
  21       5.920e+00      -1.195e+01       4.326e-01          -0.045          -0.077          -0.996       5.843e-03         -0.1440
  22       5.789e+00      -1.195e+01       4.418e-01          -0.099          -0.099          -0.990       4.963e-03         -0.1466
  23       5.683e+00      -1.195e+01       4.560e-01          -0.178          -0.132          -0.975       3.818e-03         -0.1619
  24       5.608e+00      -1.195e+01       4.760e-01          -0.374          -0.217          -0.902       2.566e-03         -0.0870
  25       5.570e+00      -1.195e+01       5.047e-01          -0.805          -0.394          -0.443       1.726e-03          0.5197
  26       5.570e+00      -1.195e+01       5.385e-01          -0.804          -0.353           0.478       1.715e-03          0.0738
  27       5.608e+00      -1.195e+01       5.671e-01          -0.376          -0.139           0.916       2.567e-03         -0.7030
  28       5.683e+00      -1.195e+01       5.873e-01          -0.180          -0.048           0.983       3.814e-03         -0.4809
  29       5.789e+00      -1.194e+01       6.016e-01          -0.097          -0.011           0.995       4.953e-03         -0.3392
  30       5.920e+00      -1.194e+01       6.106e-01          -0.044           0.011           0.999       5.832e-03         -0.2785
  31       6.069e+00      -1.194e+01       6.139e-01          -0.003           0.027           1.000       6.386e-03         -0.2462
  32       6.228e+00      -1.194e+01       6.113e-01           0.036           0.041           0.999       6.580e-03         -0.2273
  33       6.386e+00      -1.194e+01       6.022e-01           0.079           0.056           0.995       6.406e-03         -0.2145
  34       6.536e+00      -1.195e+01       5.866e-01           0.132           0.072           0.989       5.878e-03         -0.2041
  35       6.667e+00      -1.195e+01       5.654e-01           0.190           0.088           0.978       5.021e-03         -0.2128
  36       6.773e+00      -1.195e+01       5.423e-01           0.243           0.102           0.965       3.862e-03         -0.2478
  37       6.847e+00      -1.195e+01       5.225e-01           0.281           0.111           0.953       2.438e-03         -0.2983
  38       6.885e+00      -1.195e+01       5.090e-01           0.465           0.152           0.872       9.040e-04         -0.1535
Strip 2
  39       6.866e+00      -1.187e+01       5.007e-01          -0.063          -0.062          -0.996       2.413e-03         -0.0112
  40       6.827e+00      -1.187e+01       5.071e-01          -0.196          -0.093          -0.976       7.233e-03          0.1431
  41       6.752e+00      -1.187e+01       5.147e-01          -0.039          -0.054          -0.998       1.136e-02          0.2445
  42       6.644e+00      -1.187e+01       5.090e-01           0.122          -0.011          -0.992       1.507e-02          0.2349
  43       6.511e+00      -1.187e+01       4.860e-01           0.209           0.015          -0.978       1.812e-02          0.1288
  44       6.360e+00      -1.187e+01       4.556e-01           0.185           0.007          -0.983       1.977e-02         -0.0482
  45       6.199e+00      -1.187e+01       4.334e-01           0.089          -0.026          -0.996       2.007e-02         -0.1687
  46       6.038e+00      -1.187e+01       4.253e-01           0.010          -0.055          -0.998       1.941e-02         -0.1862
  47       5.887e+00      -1.187e+01       4.278e-01          -0.045          -0.077          -0.996       1.773e-02         -0.1784
  48       5.754e+00      -1.187e+01       4.371e-01          -0.099          -0.099          -0.990       1.506e-02         -0.1774
  49       5.646e+00      -1.187e+01       4.516e-01          -0.178          -0.132          -0.975       1.159e-02         -0.1823
  50       5.571e+00      -1.187e+01       4.718e-01          -0.374          -0.217          -0.902       7.787e-03         -0.0562
  51       5.532e+00      -1.187e+01       5.009e-01          -0.805          -0.394          -0.443       5.239e-03          0.6237
  52       5.532e+00      -1.187e+01       5.352e-01          -0.804          -0.353           0.478       5.203e-03          0.0423
  53       5.571e+00      -1.186e+01       5.642e-01          -0.377          -0.139           0.916       7.787e-03         -0.8567
  54       5.646e+00      -1.186e+01       5.847e-01          -0.180          -0.048           0.983       1.157e-02         -0.6113
  55       5.754e+00      -1.186e+01       5.991e-01          -0.097          -0.011           0.995       1.503e-02         -0.4359
  56       5.887e+00      -1.186e+01       6.082e-01          -0.044           0.011           0.999       1.769e-02         -0.3511
  57       6.038e+00      -1.186e+01       6.116e-01          -0.003           0.027           1.000       1.938e-02         -0.3069
  58       6.199e+00      -1.186e+01       6.089e-01           0.036           0.041           0.999       1.997e-02         -0.2856
  59       6.360e+00      -1.186e+01       5.998e-01           0.079           0.056           0.995       1.944e-02         -0.2762
  60       6.511e+00      -1.186e+01       5.839e-01           0.132           0.072           0.989       1.784e-02         -0.2655
  61       6.644e+00      -1.186e+01       5.625e-01           0.190           0.088           0.978       1.524e-02         -0.2501
  62       6.752e+00      -1.187e+01       5.391e-01           0.243           0.102           0.965       1.172e-02         -0.2175
  63       6.827e+00      -1.187e+01       5.189e-01           0.281           0.111           0.953       7.400e-03         -0.1971
  64       6.866e+00      -1.187e+01       5.053e-01           0.465           0.152           0.872       2.743e-03         -0.0226
Strip 3
  65       6.826e+00      -1.170e+01       4.931e-01          -0.063          -0.062          -0.996       4.112e-03          0.0956
  66       6.787e+00      -1.170e+01       4.997e-01          -0.196          -0.093          -0.976       1.233e-02          0.2662
  67       6.709e+00      -1.170e+01       5.075e-01          -0.039          -0.054          -0.998       1.935e-02          0.3575
  68       6.599e+00      -1.170e+01       5.016e-01           0.122          -0.011          -0.992       2.568e-02          0.3128
  69       6.462e+00      -1.171e+01       4.780e-01           0.209           0.015          -0.978       3.088e-02          0.1706
  70       6.307e+00      -1.171e+01       4.468e-01           0.185           0.007          -0.983       3.369e-02         -0.0391
  71       6.142e+00      -1.171e+01       4.240e-01           0.089          -0.026          -0.996       3.420e-02         -0.1850
  72       5.977e+00      -1.171e+01       4.157e-01           0.010          -0.055          -0.998       3.308e-02         -0.2097
  73       5.821e+00      -1.171e+01       4.182e-01          -0.045          -0.077          -0.996       3.021e-02         -0.1944
  74       5.684e+00      -1.171e+01       4.278e-01          -0.099          -0.099          -0.990       2.567e-02         -0.1713
  75       5.574e+00      -1.171e+01       4.427e-01          -0.178          -0.132          -0.975       1.975e-02         -0.1369
  76       5.497e+00      -1.171e+01       4.635e-01          -0.374          -0.217          -0.902       1.327e-02          0.0416
  77       5.457e+00      -1.170e+01       4.933e-01          -0.805          -0.394          -0.444       8.930e-03          0.7311
  78       5.457e+00      -1.170e+01       5.285e-01          -0.804          -0.354           0.478       8.863e-03          0.0325
  79       5.497e+00      -1.170e+01       5.584e-01          -0.377          -0.139           0.916       1.327e-02         -0.9420
  80       5.574e+00      -1.170e+01       5.794e-01          -0.180          -0.048           0.983       1.972e-02         -0.7003
  81       5.684e+00      -1.170e+01       5.942e-01          -0.097          -0.011           0.995       2.561e-02         -0.5281
  82       5.821e+00      -1.170e+01       6.036e-01          -0.044           0.011           0.999       3.015e-02         -0.4364
  83       5.977e+00      -1.170e+01       6.071e-01          -0.003           0.027           1.000       3.302e-02         -0.3817
  84       6.142e+00      -1.170e+01       6.043e-01           0.036           0.041           0.999       3.402e-02         -0.3517
  85       6.307e+00      -1.170e+01       5.949e-01           0.079           0.056           0.995       3.312e-02         -0.3315
  86       6.462e+00      -1.170e+01       5.786e-01           0.132           0.072           0.989       3.040e-02         -0.2974
  87       6.599e+00      -1.170e+01       5.566e-01           0.190           0.088           0.978       2.597e-02         -0.2392
  88       6.709e+00      -1.170e+01       5.325e-01           0.243           0.102           0.965       1.997e-02         -0.1510
  89       6.787e+00      -1.170e+01       5.119e-01           0.281           0.111           0.953       1.261e-02         -0.0796
  90       6.826e+00      -1.170e+01       4.978e-01           0.465           0.152           0.872       4.675e-03          0.1070
Strip 4
  91       6.768e+00      -1.146e+01       4.818e-01          -0.063          -0.062          -0.996       5.943e-03          0.1214
  92       6.726e+00      -1.146e+01       4.886e-01          -0.196          -0.093          -0.976       1.782e-02          0.2967
  93       6.646e+00      -1.146e+01       4.967e-01          -0.039          -0.054          -0.998       2.796e-02          0.3893
  94       6.531e+00      -1.146e+01       4.906e-01           0.122          -0.011          -0.992       3.711e-02          0.3400
  95       6.389e+00      -1.146e+01       4.661e-01           0.209           0.015          -0.978       4.461e-02          0.1889
  96       6.228e+00      -1.146e+01       4.337e-01           0.185           0.007          -0.983       4.868e-02         -0.0319
  97       6.056e+00      -1.146e+01       4.100e-01           0.089          -0.026          -0.996       4.942e-02         -0.1866
  98       5.884e+00      -1.147e+01       4.014e-01           0.010          -0.055          -0.998       4.781e-02         -0.2112
  99       5.723e+00      -1.146e+01       4.040e-01          -0.045          -0.077          -0.996       4.366e-02         -0.1862
 100       5.581e+00      -1.146e+01       4.139e-01          -0.099          -0.099          -0.990       3.709e-02         -0.1478
 101       5.466e+00      -1.146e+01       4.294e-01          -0.178          -0.132          -0.975       2.854e-02         -0.0976
 102       5.386e+00      -1.146e+01       4.510e-01          -0.374          -0.217          -0.902       1.919e-02          0.0980
 103       5.344e+00      -1.146e+01       4.820e-01          -0.805          -0.394          -0.444       1.291e-02          0.7648
 104       5.344e+00      -1.146e+01       5.186e-01          -0.805          -0.354           0.477       1.280e-02         -0.0098
 105       5.386e+00      -1.146e+01       5.496e-01          -0.377          -0.139           0.916       1.916e-02         -1.0088
 106       5.466e+00      -1.146e+01       5.715e-01          -0.180          -0.048           0.983       2.849e-02         -0.7544
 107       5.581e+00      -1.146e+01       5.869e-01          -0.097          -0.011           0.995       3.700e-02         -0.5834
 108       5.723e+00      -1.146e+01       5.966e-01          -0.044           0.011           0.999       4.357e-02         -0.4966
 109       5.884e+00      -1.146e+01       6.003e-01          -0.003           0.027           1.000       4.771e-02         -0.4424
 110       6.056e+00      -1.146e+01       5.974e-01           0.036           0.041           0.999       4.917e-02         -0.4084
 111       6.228e+00      -1.146e+01       5.876e-01           0.079           0.056           0.995       4.787e-02         -0.3803
 112       6.389e+00      -1.146e+01       5.706e-01           0.132           0.072           0.989       4.393e-02         -0.3339
 113       6.531e+00      -1.146e+01       5.478e-01           0.190           0.088           0.978       3.753e-02         -0.2592
 114       6.646e+00      -1.146e+01       5.228e-01           0.243           0.102           0.965       2.886e-02         -0.1527
 115       6.726e+00      -1.146e+01       5.013e-01           0.281           0.111           0.953       1.823e-02         -0.0637
 116       6.768e+00      -1.146e+01       4.867e-01           0.465           0.152           0.872       6.758e-03          0.1273
Strip 5
 117       6.690e+00      -1.114e+01       4.669e-01          -0.063          -0.062          -0.996       7.950e-03          0.1282
 118       6.647e+00      -1.114e+01       4.740e-01          -0.196          -0.093          -0.976       2.383e-02          0.3058
 119       6.562e+00      -1.114e+01       4.826e-01          -0.039          -0.054          -0.998       3.741e-02          0.4001
 120       6.442e+00      -1.114e+01       4.761e-01           0.123          -0.011          -0.992       4.964e-02          0.3504
 121       6.293e+00      -1.114e+01       4.504e-01           0.209           0.015          -0.978       5.967e-02          0.1978
 122       6.123e+00      -1.114e+01       4.163e-01           0.185           0.007          -0.983       6.510e-02         -0.0248
 123       5.943e+00      -1.114e+01       3.915e-01           0.089          -0.026          -0.996       6.611e-02         -0.1799
 124       5.763e+00      -1.114e+01       3.824e-01           0.010          -0.055          -0.998       6.395e-02         -0.2019
 125       5.593e+00      -1.114e+01       3.851e-01          -0.045          -0.077          -0.996       5.841e-02         -0.1718
 126       5.444e+00      -1.114e+01       3.956e-01          -0.099          -0.099          -0.990       4.963e-02         -0.1280
 127       5.323e+00      -1.114e+01       4.118e-01          -0.177          -0.132          -0.975       3.819e-02         -0.0718
 128       5.239e+00      -1.114e+01       4.345e-01          -0.374          -0.217          -0.902       2.568e-02          0.1327
 129       5.196e+00      -1.114e+01       4.671e-01          -0.804          -0.394          -0.445       1.728e-02          0.7798
 130       5.196e+00      -1.114e+01       5.055e-01          -0.805          -0.354           0.476       1.712e-02         -0.0483
 131       5.239e+00      -1.114e+01       5.381e-01          -0.377          -0.139           0.916       2.562e-02         -1.0602
 132       5.323e+00      -1.114e+01       5.610e-01          -0.180          -0.048           0.983       3.810e-02         -0.7915
 133       5.444e+00      -1.114e+01       5.772e-01          -0.097          -0.011           0.995       4.950e-02         -0.6175
 134       5.593e+00      -1.114e+01       5.874e-01          -0.044           0.011           0.999       5.828e-02         -0.5328
 135       5.763e+00      -1.114e+01       5.913e-01          -0.003           0.027           1.000       6.382e-02         -0.4809
 136       5.943e+00      -1.114e+01       5.882e-01           0.036           0.041           0.999       6.578e-02         -0.4469
 137       6.123e+00      -1.114e+01       5.779e-01           0.079           0.056           0.995       6.404e-02         -0.4155
 138       6.293e+00      -1.114e+01       5.602e-01           0.132           0.072           0.989       5.877e-02         -0.3622
 139       6.442e+00      -1.114e+01       5.362e-01           0.190           0.088           0.978       5.021e-02         -0.2784
 140       6.562e+00      -1.114e+01       5.099e-01           0.243           0.102           0.965       3.862e-02         -0.1624
 141       6.647e+00      -1.114e+01       4.873e-01           0.281           0.111           0.953       2.439e-02         -0.0651
 142       6.690e+00      -1.114e+01       4.720e-01           0.465           0.152           0.872       9.043e-03          0.1282
Strip 6
 143       6.594e+00      -1.074e+01       4.484e-01          -0.063          -0.062          -0.996       1.017e-02          0.1297
 144       6.548e+00      -1.074e+01       4.560e-01          -0.196          -0.093          -0.976       3.050e-02          0.3090
 145       6.459e+00      -1.074e+01       4.650e-01          -0.039          -0.054          -0.998       4.787e-02          0.4047
 146       6.331e+00      -1.074e+01       4.582e-01           0.123          -0.011          -0.992       6.350e-02          0.3556
 147       6.173e+00      -1.074e+01       4.309e-01           0.209           0.015          -0.978       7.632e-02          0.2034
 148       5.993e+00      -1.075e+01       3.949e-01           0.185           0.007          -0.983       8.328e-02         -0.0185
 149       5.803e+00      -1.075e+01       3.685e-01           0.089          -0.026          -0.996       8.457e-02         -0.1721
 150       5.612e+00      -1.075e+01       3.589e-01           0.010          -0.055          -0.998       8.182e-02         -0.1922
 151       5.432e+00      -1.075e+01       3.618e-01          -0.045          -0.077          -0.996       7.474e-02         -0.1602
 152       5.274e+00      -1.075e+01       3.729e-01          -0.099          -0.099          -0.990       6.350e-02         -0.1146
 153       5.147e+00      -1.075e+01       3.901e-01          -0.177          -0.132          -0.975       4.887e-02         -0.0556
 154       5.057e+00      -1.075e+01       4.141e-01          -0.373          -0.217          -0.902       3.287e-02          0.1538
 155       5.011e+00      -1.074e+01       4.486e-01          -0.804          -0.393          -0.446       2.212e-02          0.7871
 156       5.011e+00      -1.074e+01       4.893e-01          -0.805          -0.354           0.475       2.189e-02         -0.0753
 157       5.057e+00      -1.074e+01       5.238e-01          -0.377          -0.140           0.916       3.277e-02         -1.0954
 158       5.147e+00      -1.074e+01       5.481e-01          -0.180          -0.048           0.983       4.874e-02         -0.8158
 159       5.274e+00      -1.074e+01       5.652e-01          -0.097          -0.011           0.995       6.332e-02         -0.6385
 160       5.432e+00      -1.074e+01       5.761e-01          -0.044           0.011           0.999       7.456e-02         -0.5540
 161       5.612e+00      -1.074e+01       5.801e-01          -0.003           0.027           1.000       8.166e-02         -0.5032
 162       5.803e+00      -1.074e+01       5.769e-01           0.036           0.041           0.999       8.416e-02         -0.4695
 163       5.993e+00      -1.074e+01       5.660e-01           0.079           0.056           0.995       8.194e-02         -0.4368
 164       6.173e+00      -1.074e+01       5.472e-01           0.132           0.072           0.989       7.520e-02         -0.3803
 165       6.331e+00      -1.074e+01       5.218e-01           0.190           0.088           0.978       6.425e-02         -0.2915
 166       6.459e+00      -1.074e+01       4.939e-01           0.243           0.102           0.965       4.942e-02         -0.1705
 167       6.548e+00      -1.074e+01       4.701e-01           0.281           0.111           0.953       3.121e-02         -0.0692
 168       6.594e+00      -1.074e+01       4.538e-01           0.465           0.152           0.872       1.157e-02          0.1253
Strip 7
 169       6.480e+00      -1.027e+01       4.265e-01          -0.063          -0.062          -0.996       1.264e-02          0.1302
 170       6.431e+00      -1.027e+01       4.346e-01          -0.196          -0.093          -0.976       3.790e-02          0.3106
 171       6.336e+00      -1.027e+01       4.442e-01          -0.039          -0.054          -0.998       5.947e-02          0.4072
 172       6.200e+00      -1.027e+01       4.369e-01           0.123          -0.011          -0.992       7.889e-02          0.3587
 173       6.032e+00      -1.027e+01       4.079e-01           0.209           0.015          -0.978       9.480e-02          0.2072
 174       5.840e+00      -1.028e+01       3.694e-01           0.185           0.007          -0.983       1.034e-01         -0.0139
 175       5.637e+00      -1.028e+01       3.413e-01           0.089          -0.026          -0.996       1.051e-01         -0.1665
 176       5.433e+00      -1.028e+01       3.311e-01           0.010          -0.055          -0.998       1.017e-01         -0.1856
 177       5.242e+00      -1.028e+01       3.342e-01          -0.045          -0.077          -0.996       9.286e-02         -0.1530
 178       5.073e+00      -1.028e+01       3.460e-01          -0.099          -0.099          -0.990       7.891e-02         -0.1069
 179       4.937e+00      -1.028e+01       3.643e-01          -0.177          -0.132          -0.975       6.073e-02         -0.0469
 180       4.842e+00      -1.027e+01       3.899e-01          -0.373          -0.217          -0.902       4.086e-02          0.1648
 181       4.793e+00      -1.027e+01       4.267e-01          -0.803          -0.393          -0.447       2.749e-02          0.7905
 182       4.793e+00      -1.027e+01       4.701e-01          -0.806          -0.354           0.474       2.718e-02         -0.0898
 183       4.842e+00      -1.027e+01       5.069e-01          -0.377          -0.140           0.915       4.069e-02         -1.1152
 184       4.937e+00      -1.027e+01       5.328e-01          -0.180          -0.048           0.983       6.054e-02         -0.8295
 185       5.073e+00      -1.027e+01       5.511e-01          -0.097          -0.011           0.995       7.865e-02         -0.6504
 186       5.242e+00      -1.027e+01       5.626e-01          -0.044           0.011           0.999       9.263e-02         -0.5657
 187       5.433e+00      -1.027e+01       5.669e-01          -0.003           0.027           1.000       1.015e-01         -0.5153
 188       5.637e+00      -1.027e+01       5.635e-01           0.036           0.041           0.999       1.046e-01         -0.4819
 189       5.840e+00      -1.027e+01       5.519e-01           0.079           0.056           0.995       1.018e-01         -0.4486
 190       6.032e+00      -1.027e+01       5.318e-01           0.132           0.072           0.989       9.344e-02         -0.3904
 191       6.200e+00      -1.027e+01       5.047e-01           0.190           0.088           0.978       7.984e-02         -0.2991
 192       6.336e+00      -1.027e+01       4.750e-01           0.243           0.102           0.965       6.141e-02         -0.1757
 193       6.431e+00      -1.027e+01       4.496e-01           0.281           0.111           0.953       3.878e-02         -0.0722
 194       6.480e+00      -1.027e+01       4.323e-01           0.464           0.152           0.872       1.438e-02          0.1230
Strip 8
 195       6.349e+00      -9.733e+00       4.013e-01          -0.063          -0.062          -0.996       1.537e-02          0.1304
 196       6.297e+00      -9.733e+00       4.100e-01          -0.196          -0.093          -0.976       4.609e-02          0.3114
 197       6.195e+00      -9.732e+00       4.203e-01          -0.039          -0.054          -0.998       7.231e-02          0.4088
 198       6.050e+00      -9.733e+00       4.125e-01           0.123          -0.011          -0.992       9.590e-02          0.3607
 199       5.869e+00      -9.733e+00       3.814e-01           0.209           0.015          -0.978       1.152e-01          0.2095
 200       5.664e+00      -9.734e+00       3.402e-01           0.185           0.007          -0.983       1.258e-01         -0.0111
 201       5.446e+00      -9.735e+00       3.101e-01           0.089          -0.026          -0.996       1.277e-01         -0.1633
 202       5.228e+00      -9.736e+00       2.991e-01           0.010          -0.055          -0.998       1.236e-01         -0.1822
 203       5.023e+00      -9.735e+00       3.024e-01          -0.045          -0.077          -0.996       1.129e-01         -0.1495
 204       4.843e+00      -9.735e+00       3.151e-01          -0.099          -0.099          -0.990       9.595e-02         -0.1035
 205       4.697e+00      -9.735e+00       3.347e-01          -0.177          -0.132          -0.975       7.386e-02         -0.0436
 206       4.595e+00      -9.734e+00       3.622e-01          -0.373          -0.217          -0.902       4.970e-02          0.1683
 207       4.543e+00      -9.733e+00       4.016e-01          -0.803          -0.393          -0.448       3.345e-02          0.7916
 208       4.543e+00      -9.732e+00       4.481e-01          -0.806          -0.355           0.473       3.303e-02         -0.0931
 209       4.595e+00      -9.731e+00       4.874e-01          -0.378          -0.140           0.915       4.944e-02         -1.1220
 210       4.697e+00      -9.730e+00       5.152e-01          -0.180          -0.048           0.983       7.359e-02         -0.8348
 211       4.843e+00      -9.729e+00       5.348e-01          -0.097          -0.011           0.995       9.562e-02         -0.6555
 212       5.023e+00      -9.729e+00       5.472e-01          -0.044           0.011           0.999       1.126e-01         -0.5711
 213       5.228e+00      -9.729e+00       5.518e-01          -0.003           0.027           1.000       1.234e-01         -0.5213
 214       5.446e+00      -9.729e+00       5.481e-01           0.036           0.041           0.999       1.271e-01         -0.4880
 215       5.664e+00      -9.729e+00       5.357e-01           0.079           0.056           0.995       1.238e-01         -0.4545
 216       5.869e+00      -9.730e+00       5.141e-01           0.132           0.072           0.989       1.136e-01         -0.3955
 217       6.050e+00      -9.731e+00       4.851e-01           0.190           0.088           0.978       9.709e-02         -0.3031
 218       6.195e+00      -9.732e+00       4.533e-01           0.243           0.102           0.965       7.468e-02         -0.1784
 219       6.297e+00      -9.732e+00       4.261e-01           0.280           0.111           0.953       4.716e-02         -0.0739
 220       6.349e+00      -9.733e+00       4.075e-01           0.464           0.152           0.872       1.749e-02          0.1215
Strip 9
 221       6.203e+00      -9.126e+00       3.730e-01          -0.063          -0.062          -0.996       1.837e-02          0.1306
 222       6.146e+00      -9.126e+00       3.823e-01          -0.196          -0.093          -0.976       5.509e-02          0.3120
 223       6.037e+00      -9.125e+00       3.934e-01          -0.039          -0.054          -0.998       8.643e-02          0.4096
 224       5.880e+00      -9.126e+00       3.851e-01           0.123          -0.011          -0.992       1.146e-01          0.3618
 225       5.686e+00      -9.126e+00       3.516e-01           0.209           0.015          -0.978       1.377e-01          0.2107
 226       5.466e+00      -9.127e+00       3.074e-01           0.185           0.007          -0.983       1.503e-01         -0.0099
 227       5.232e+00      -9.128e+00       2.750e-01           0.089          -0.026          -0.996       1.526e-01         -0.1622
 228       4.998e+00      -9.128e+00       2.632e-01           0.010          -0.055          -0.998       1.477e-01         -0.1812
 229       4.777e+00      -9.128e+00       2.668e-01          -0.045          -0.077          -0.996       1.350e-01         -0.1489
 230       4.583e+00      -9.128e+00       2.804e-01          -0.099          -0.099          -0.990       1.147e-01         -0.1036
 231       4.427e+00      -9.127e+00       3.014e-01          -0.177          -0.132          -0.975       8.830e-02         -0.0446
 232       4.317e+00      -9.127e+00       3.310e-01          -0.373          -0.217          -0.902       5.943e-02          0.1660
 233       4.261e+00      -9.126e+00       3.733e-01          -0.802          -0.393          -0.449       4.000e-02          0.7910
 234       4.261e+00      -9.125e+00       4.233e-01          -0.807          -0.355           0.472       3.945e-02         -0.0871
 235       4.317e+00      -9.124e+00       4.656e-01          -0.378          -0.140           0.915       5.906e-02         -1.1183
 236       4.427e+00      -9.123e+00       4.954e-01          -0.180          -0.048           0.983       8.793e-02         -0.8337
 237       4.583e+00      -9.123e+00       5.165e-01          -0.097          -0.011           0.995       1.143e-01         -0.6558
 238       4.777e+00      -9.122e+00       5.298e-01          -0.044           0.011           0.999       1.346e-01         -0.5723
 239       4.998e+00      -9.122e+00       5.347e-01          -0.003           0.027           1.000       1.474e-01         -0.5231
 240       5.232e+00      -9.122e+00       5.308e-01           0.036           0.041           0.999       1.520e-01         -0.4902
 241       5.466e+00      -9.123e+00       5.174e-01           0.079           0.056           0.995       1.480e-01         -0.4568
 242       5.686e+00      -9.123e+00       4.943e-01           0.132           0.072           0.989       1.358e-01         -0.3976
 243       5.880e+00      -9.124e+00       4.631e-01           0.190           0.088           0.978       1.161e-01         -0.3048
 244       6.037e+00      -9.125e+00       4.289e-01           0.243           0.102           0.965       8.928e-02         -0.1798
 245       6.146e+00      -9.125e+00       3.996e-01           0.280           0.111           0.953       5.638e-02         -0.0747
 246       6.203e+00      -9.126e+00       3.797e-01           0.464           0.152           0.873       2.091e-02          0.1208
Strip 10
 247       6.041e+00      -8.456e+00       3.418e-01          -0.063          -0.062          -0.996       2.163e-02          0.1305
 248       5.980e+00      -8.456e+00       3.519e-01          -0.196          -0.093          -0.976       6.489e-02          0.3122
 249       5.862e+00      -8.456e+00       3.638e-01          -0.039          -0.054          -0.998       1.018e-01          0.4101
 250       5.694e+00      -8.456e+00       3.548e-01           0.123          -0.011          -0.992       1.350e-01          0.3624
 251       5.485e+00      -8.457e+00       3.188e-01           0.209           0.015          -0.978       1.622e-01          0.2111
 252       5.248e+00      -8.458e+00       2.712e-01           0.185           0.007          -0.983       1.769e-01         -0.0099
 253       4.996e+00      -8.458e+00       2.363e-01           0.089          -0.026          -0.996       1.798e-01         -0.1626
 254       4.744e+00      -8.459e+00       2.236e-01           0.010          -0.055          -0.998       1.740e-01         -0.1821
 255       4.506e+00      -8.459e+00       2.274e-01          -0.045          -0.077          -0.996       1.590e-01         -0.1504
 256       4.298e+00      -8.458e+00       2.421e-01          -0.099          -0.099          -0.990       1.351e-01         -0.1061
 257       4.129e+00      -8.458e+00       2.648e-01          -0.177          -0.132          -0.975       1.040e-01         -0.0488
 258       4.011e+00      -8.457e+00       2.966e-01          -0.373          -0.217          -0.902       7.003e-02          0.1589
 259       3.951e+00      -8.456e+00       3.422e-01          -0.802          -0.393          -0.450       4.714e-02          0.7892
 260       3.951e+00      -8.455e+00       3.960e-01          -0.807          -0.355           0.471       4.644e-02         -0.0741
 261       4.011e+00      -8.454e+00       4.415e-01          -0.378          -0.140           0.915       6.953e-02         -1.1068
 262       4.129e+00      -8.454e+00       4.736e-01          -0.180          -0.048           0.982       1.035e-01         -0.8278
 263       4.298e+00      -8.453e+00       4.963e-01          -0.097          -0.011           0.995       1.346e-01         -0.6525
 264       4.506e+00      -8.453e+00       5.106e-01          -0.044           0.011           0.999       1.585e-01         -0.5704
 265       4.744e+00      -8.453e+00       5.160e-01          -0.003           0.027           1.000       1.736e-01         -0.5222
 266       4.996e+00      -8.453e+00       5.117e-01           0.036           0.041           0.999       1.790e-01         -0.4900
 267       5.248e+00      -8.453e+00       4.973e-01           0.079           0.056           0.995       1.743e-01         -0.4570
 268       5.485e+00      -8.454e+00       4.724e-01           0.132           0.072           0.989       1.600e-01         -0.3980
 269       5.694e+00      -8.455e+00       4.388e-01           0.190           0.088           0.978       1.367e-01         -0.3052
 270       5.862e+00      -8.455e+00       4.021e-01           0.243           0.102           0.965       1.052e-01         -0.1800
 271       5.980e+00      -8.456e+00       3.705e-01           0.280           0.111           0.953       6.641e-02         -0.0749
 272       6.041e+00      -8.456e+00       3.490e-01           0.464           0.152           0.873       2.464e-02          0.1202
Strip 11
 273       5.865e+00      -7.729e+00       3.080e-01          -0.063          -0.062          -0.996       2.515e-02          0.1304
 274       5.800e+00      -7.729e+00       3.188e-01          -0.196          -0.093          -0.976       7.545e-02          0.3123
 275       5.672e+00      -7.729e+00       3.316e-01          -0.039          -0.054          -0.998       1.183e-01          0.4104
 276       5.491e+00      -7.729e+00       3.220e-01           0.123          -0.011          -0.992       1.569e-01          0.3626
 277       5.266e+00      -7.730e+00       2.832e-01           0.209           0.015          -0.978       1.885e-01          0.2110
 278       5.011e+00      -7.730e+00       2.318e-01           0.185           0.007          -0.983       2.057e-01         -0.0107
 279       4.739e+00      -7.731e+00       1.943e-01           0.089          -0.026          -0.996       2.089e-01         -0.1641
 280       4.468e+00      -7.731e+00       1.806e-01           0.010          -0.055          -0.998       2.022e-01         -0.1844
 281       4.212e+00      -7.731e+00       1.847e-01          -0.045          -0.077          -0.996       1.848e-01         -0.1535
 282       3.987e+00      -7.731e+00       2.005e-01          -0.099          -0.099          -0.990       1.571e-01         -0.1105
 283       3.806e+00      -7.731e+00       2.250e-01          -0.177          -0.132          -0.975       1.210e-01         -0.0557
 284       3.679e+00      -7.730e+00       2.592e-01          -0.372          -0.217          -0.902       8.145e-02          0.1482
 285       3.613e+00      -7.729e+00       3.084e-01          -0.802          -0.393          -0.451       5.482e-02          0.7863
 286       3.613e+00      -7.728e+00       3.663e-01          -0.808          -0.355           0.470       5.396e-02         -0.0553
 287       3.679e+00      -7.727e+00       4.154e-01          -0.378          -0.140           0.915       8.079e-02         -1.0886
 288       3.806e+00      -7.727e+00       4.499e-01          -0.180          -0.048           0.982       1.203e-01         -0.8178
 289       3.987e+00      -7.726e+00       4.744e-01          -0.097          -0.011           0.995       1.564e-01         -0.6463
 290       4.212e+00      -7.726e+00       4.898e-01          -0.044           0.011           0.999       1.843e-01         -0.5664
 291       4.468e+00      -7.726e+00       4.956e-01          -0.003           0.027           1.000       2.018e-01         -0.5194
 292       4.739e+00      -7.726e+00       4.910e-01           0.036           0.041           0.999       2.081e-01         -0.4881
 293       5.011e+00      -7.726e+00       4.755e-01           0.079           0.056           0.995       2.026e-01         -0.4557
 294       5.266e+00      -7.727e+00       4.487e-01           0.132           0.072           0.989       1.860e-01         -0.3971
 295       5.491e+00      -7.727e+00       4.125e-01           0.190           0.088           0.978       1.589e-01         -0.3046
 296       5.672e+00      -7.728e+00       3.729e-01           0.243           0.102           0.965       1.223e-01         -0.1798
 297       5.800e+00      -7.729e+00       3.389e-01           0.280           0.111           0.953       7.722e-02         -0.0749
 298       5.865e+00      -7.729e+00       3.157e-01           0.464           0.152           0.873       2.865e-02          0.1199
Strip 12
 299       5.676e+00      -6.949e+00       2.717e-01          -0.063          -0.062          -0.996       2.889e-02          0.1303
 300       5.606e+00      -6.949e+00       2.833e-01          -0.196          -0.093          -0.976       8.666e-02          0.3122
 301       5.469e+00      -6.949e+00       2.971e-01          -0.039          -0.054          -0.998       1.359e-01          0.4103
 302       5.274e+00      -6.949e+00       2.867e-01           0.123          -0.011          -0.992       1.802e-01          0.3625
 303       5.032e+00      -6.950e+00       2.449e-01           0.209           0.015          -0.978       2.164e-01          0.2105
 304       4.756e+00      -6.950e+00       1.896e-01           0.185           0.007          -0.983       2.362e-01         -0.0121
 305       4.464e+00      -6.951e+00       1.492e-01           0.089          -0.026          -0.996       2.400e-01         -0.1666
 306       4.172e+00      -6.951e+00       1.345e-01           0.010          -0.055          -0.998       2.323e-01         -0.1877
 307       3.896e+00      -6.951e+00       1.389e-01          -0.045          -0.077          -0.996       2.123e-01         -0.1580
 308       3.654e+00      -6.951e+00       1.559e-01          -0.099          -0.099          -0.990       1.804e-01         -0.1165
 309       3.459e+00      -6.950e+00       1.822e-01          -0.177          -0.132          -0.975       1.389e-01         -0.0645
 310       3.322e+00      -6.950e+00       2.191e-01          -0.372          -0.217          -0.903       9.358e-02          0.1344
 311       3.252e+00      -6.949e+00       2.721e-01          -0.801          -0.393          -0.452       6.299e-02          0.7823
 312       3.252e+00      -6.948e+00       3.345e-01          -0.808          -0.356           0.470       6.195e-02         -0.0317
 313       3.322e+00      -6.948e+00       3.873e-01          -0.378          -0.140           0.915       9.275e-02         -1.0647
 314       3.459e+00      -6.947e+00       4.246e-01          -0.180          -0.048           0.982       1.382e-01         -0.8048
 315       3.654e+00      -6.947e+00       4.508e-01          -0.097          -0.011           0.995       1.796e-01         -0.6380
 316       3.896e+00      -6.946e+00       4.675e-01          -0.044           0.011           0.999       2.116e-01         -0.5605
 317       4.172e+00      -6.946e+00       4.737e-01          -0.003           0.027           1.000       2.318e-01         -0.5151
 318       4.464e+00      -6.946e+00       4.688e-01           0.036           0.041           0.999       2.390e-01         -0.4849
 319       4.756e+00      -6.947e+00       4.521e-01           0.079           0.056           0.995       2.327e-01         -0.4534
 320       5.032e+00      -6.947e+00       4.232e-01           0.132           0.072           0.989       2.137e-01         -0.3954
 321       5.274e+00      -6.948e+00       3.842e-01           0.189           0.088           0.978       1.826e-01         -0.3035
 322       5.469e+00      -6.948e+00       3.415e-01           0.243           0.102           0.965       1.405e-01         -0.1792
 323       5.606e+00      -6.949e+00       3.049e-01           0.280           0.111           0.953       8.870e-02         -0.0747
 324       5.676e+00      -6.949e+00       2.800e-01           0.464           0.152           0.873       3.292e-02          0.1197
Strip 13
 325       5.476e+00      -6.122e+00       2.331e-01          -0.063          -0.062          -0.996       3.280e-02          0.1300
 326       5.400e+00      -6.122e+00       2.457e-01          -0.196          -0.093          -0.976       9.842e-02          0.3120
 327       5.253e+00      -6.121e+00       2.605e-01          -0.039          -0.054          -0.998       1.543e-01          0.4102
 328       5.043e+00      -6.122e+00       2.494e-01           0.123          -0.011          -0.992       2.046e-01          0.3622
 329       4.783e+00      -6.122e+00       2.044e-01           0.209           0.015          -0.978       2.457e-01          0.2096
 330       4.486e+00      -6.123e+00       1.449e-01           0.185           0.007          -0.983       2.681e-01         -0.0141
 331       4.172e+00      -6.123e+00       1.014e-01           0.089          -0.026          -0.996       2.724e-01         -0.1698
 332       3.858e+00      -6.123e+00       8.556e-02           0.010          -0.055          -0.998       2.637e-01         -0.1920
 333       3.562e+00      -6.123e+00       9.031e-02          -0.045          -0.077          -0.996       2.410e-01         -0.1635
 334       3.301e+00      -6.123e+00       1.086e-01          -0.099          -0.099          -0.990       2.049e-01         -0.1239
 335       3.091e+00      -6.123e+00       1.369e-01          -0.177          -0.132          -0.975       1.578e-01         -0.0753
 336       2.944e+00      -6.122e+00       1.766e-01          -0.372          -0.217          -0.903       1.063e-01          0.1177
 337       2.868e+00      -6.122e+00       2.336e-01          -0.801          -0.392          -0.453       7.156e-02          0.7771
 338       2.868e+00      -6.121e+00       3.007e-01          -0.808          -0.356           0.469       7.031e-02         -0.0043
 339       2.944e+00      -6.120e+00       3.576e-01          -0.378          -0.140           0.915       1.053e-01         -1.0362
 340       3.091e+00      -6.120e+00       3.976e-01          -0.180          -0.048           0.982       1.569e-01         -0.7889
 341       3.301e+00      -6.120e+00       4.259e-01          -0.097          -0.012           0.995       2.039e-01         -0.6278
 342       3.562e+00      -6.119e+00       4.438e-01          -0.044           0.011           0.999       2.403e-01         -0.5532
 343       3.858e+00      -6.119e+00       4.505e-01          -0.003           0.027           1.000       2.632e-01         -0.5097
 344       4.172e+00      -6.119e+00       4.452e-01           0.036           0.041           0.999       2.714e-01         -0.4808
 345       4.486e+00      -6.120e+00       4.272e-01           0.079           0.056           0.995       2.643e-01         -0.4502
 346       4.783e+00      -6.120e+00       3.961e-01           0.132           0.072           0.989       2.426e-01         -0.3931
 347       5.043e+00      -6.120e+00       3.542e-01           0.189           0.088           0.978       2.073e-01         -0.3020
 348       5.253e+00      -6.121e+00       3.083e-01           0.243           0.102           0.965       1.595e-01         -0.1783
 349       5.400e+00      -6.121e+00       2.689e-01           0.280           0.111           0.953       1.007e-01         -0.0744
 350       5.476e+00      -6.122e+00       2.421e-01           0.464           0.152           0.873       3.738e-02          0.1195
Strip 14
 351       5.266e+00      -5.252e+00       1.926e-01          -0.063          -0.062          -0.996       3.684e-02          0.1295
 352       5.185e+00      -5.252e+00       2.061e-01          -0.196          -0.093          -0.976       1.105e-01          0.3117
 353       5.027e+00      -5.252e+00       2.221e-01          -0.039          -0.054          -0.998       1.733e-01          0.4099
 354       4.801e+00      -5.252e+00       2.101e-01           0.123          -0.011          -0.992       2.297e-01          0.3617
 355       4.521e+00      -5.253e+00       1.618e-01           0.209           0.015          -0.978       2.759e-01          0.2085
 356       4.203e+00      -5.253e+00       9.787e-02           0.186           0.007          -0.983       3.011e-01         -0.0165
 357       3.865e+00      -5.254e+00       5.118e-02           0.089          -0.026          -0.996       3.060e-01         -0.1737
 358       3.528e+00      -5.254e+00       3.415e-02           0.010          -0.055          -0.998       2.962e-01         -0.1970
 359       3.210e+00      -5.254e+00       3.926e-02          -0.045          -0.077          -0.996       2.707e-01         -0.1700
 360       2.930e+00      -5.254e+00       5.889e-02          -0.099          -0.099          -0.990       2.301e-01         -0.1325
 361       2.704e+00      -5.253e+00       8.932e-02          -0.177          -0.132          -0.975       1.773e-01         -0.0878
 362       2.546e+00      -5.253e+00       1.319e-01          -0.372          -0.216          -0.903       1.194e-01          0.0984
 363       2.465e+00      -5.252e+00       1.931e-01          -0.800          -0.392          -0.453       8.040e-02          0.7706
 364       2.465e+00      -5.252e+00       2.652e-01          -0.809          -0.356           0.468       7.894e-02          0.0269
 365       2.546e+00      -5.251e+00       3.263e-01          -0.379          -0.140           0.915       1.182e-01         -1.0028
 366       2.704e+00      -5.251e+00       3.693e-01          -0.180          -0.048           0.982       1.761e-01         -0.7702
 367       2.930e+00      -5.251e+00       3.997e-01          -0.097          -0.012           0.995       2.290e-01         -0.6157
 368       3.210e+00      -5.250e+00       4.189e-01          -0.044           0.011           0.999       2.698e-01         -0.5445
 369       3.528e+00      -5.250e+00       4.261e-01          -0.003           0.027           1.000       2.956e-01         -0.5031
 370       3.865e+00      -5.250e+00       4.204e-01           0.036           0.041           0.999       3.048e-01         -0.4758
 371       4.203e+00      -5.251e+00       4.011e-01           0.079           0.056           0.995       2.969e-01         -0.4464
 372       4.521e+00      -5.251e+00       3.677e-01           0.132           0.072           0.989       2.725e-01         -0.3903
 373       4.801e+00      -5.251e+00       3.227e-01           0.189           0.088           0.978       2.329e-01         -0.3002
 374       5.027e+00      -5.252e+00       2.734e-01           0.243           0.102           0.965       1.792e-01         -0.1774
 375       5.185e+00      -5.252e+00       2.311e-01           0.280           0.111           0.954       1.132e-01         -0.0741
 376       5.266e+00      -5.252e+00       2.023e-01           0.464           0.152           0.873       4.200e-02          0.1191
Strip 15
 377       5.047e+00      -4.347e+00       1.505e-01          -0.063          -0.062          -0.996       4.094e-02          0.1290
 378       4.960e+00      -4.347e+00       1.649e-01          -0.196          -0.093          -0.976       1.229e-01          0.3113
 379       4.790e+00      -4.347e+00       1.821e-01          -0.039          -0.054          -0.998       1.926e-01          0.4095
 380       4.549e+00      -4.347e+00       1.692e-01           0.123          -0.011          -0.992       2.553e-01          0.3611
 381       4.249e+00      -4.347e+00       1.174e-01           0.209           0.015          -0.978       3.066e-01          0.2070
 382       3.908e+00      -4.348e+00       4.891e-02           0.186           0.007          -0.983       3.346e-01         -0.0194
 383       3.546e+00      -4.348e+00      -1.130e-03           0.089          -0.026          -0.996       3.400e-01         -0.1782
 384       3.184e+00      -4.348e+00      -1.938e-02           0.010          -0.055          -0.998       3.292e-01         -0.2029
 385       2.843e+00      -4.348e+00      -1.391e-02          -0.045          -0.077          -0.996       3.009e-01         -0.1773
 386       2.543e+00      -4.348e+00       7.138e-03          -0.099          -0.099          -0.990       2.558e-01         -0.1422
 387       2.302e+00      -4.348e+00       3.975e-02          -0.177          -0.132          -0.975       1.970e-01         -0.1021
 388       2.132e+00      -4.348e+00       8.544e-02          -0.372          -0.216          -0.903       1.328e-01          0.0760
 389       2.045e+00      -4.347e+00       1.510e-01          -0.800          -0.392          -0.454       8.938e-02          0.7625
 390       2.045e+00      -4.347e+00       2.283e-01          -0.809          -0.356           0.468       8.770e-02          0.0616
 391       2.132e+00      -4.346e+00       2.937e-01          -0.379          -0.140           0.915       1.313e-01         -0.9645
 392       2.302e+00      -4.346e+00       3.399e-01          -0.180          -0.048           0.982       1.957e-01         -0.7485
 393       2.543e+00      -4.346e+00       3.724e-01          -0.097          -0.012           0.995       2.545e-01         -0.6015
 394       2.843e+00      -4.346e+00       3.930e-01          -0.044           0.011           0.999       2.999e-01         -0.5343
 395       3.184e+00      -4.346e+00       4.007e-01          -0.003           0.027           1.000       3.285e-01         -0.4955
 396       3.546e+00      -4.346e+00       3.946e-01           0.036           0.041           0.999       3.387e-01         -0.4700
 397       3.908e+00      -4.346e+00       3.739e-01           0.079           0.056           0.995       3.299e-01         -0.4421
 398       4.249e+00      -4.346e+00       3.381e-01           0.132           0.072           0.989       3.029e-01         -0.3873
 399       4.549e+00      -4.346e+00       2.899e-01           0.189           0.088           0.978       2.589e-01         -0.2983
 400       4.790e+00      -4.347e+00       2.370e-01           0.243           0.102           0.965       1.992e-01         -0.1764
 401       4.960e+00      -4.347e+00       1.917e-01           0.280           0.111           0.954       1.258e-01         -0.0739
 402       5.047e+00      -4.347e+00       1.608e-01           0.463           0.152           0.873       4.668e-02          0.1186
Strip 16
 403       4.821e+00      -3.412e+00       1.070e-01          -0.063          -0.062          -0.996       4.503e-02          0.1280
 404       4.728e+00      -3.412e+00       1.224e-01          -0.196          -0.093          -0.976       1.351e-01          0.3105
 405       4.547e+00      -3.412e+00       1.407e-01          -0.039          -0.054          -0.998       2.119e-01          0.4088
 406       4.288e+00      -3.412e+00       1.269e-01           0.123          -0.011          -0.992       2.808e-01          0.3601
 407       3.968e+00      -3.413e+00       7.156e-02           0.209           0.015          -0.978       3.372e-01          0.2051
 408       3.603e+00      -3.413e+00      -1.648e-03           0.186           0.007          -0.983       3.679e-01         -0.0231
 409       3.216e+00      -3.413e+00      -5.515e-02           0.089          -0.026          -0.996       3.739e-01         -0.1836
 410       2.829e+00      -3.413e+00      -7.467e-02           0.010          -0.055          -0.998       3.620e-01         -0.2097
 411       2.465e+00      -3.413e+00      -6.881e-02          -0.045          -0.077          -0.996       3.309e-01         -0.1856
 412       2.144e+00      -3.413e+00      -4.631e-02          -0.099          -0.099          -0.990       2.814e-01         -0.1530
 413       1.886e+00      -3.413e+00      -1.144e-02          -0.177          -0.132          -0.975       2.167e-01         -0.1179
 414       1.705e+00      -3.413e+00       3.740e-02          -0.372          -0.216          -0.903       1.461e-01          0.0506
 415       1.612e+00      -3.412e+00       1.075e-01          -0.800          -0.392          -0.454       9.834e-02          0.7525
 416       1.612e+00      -3.412e+00       1.901e-01          -0.809          -0.356           0.467       9.643e-02          0.1007
 417       1.705e+00      -3.412e+00       2.601e-01          -0.379          -0.140           0.915       1.444e-01         -0.9198
 418       1.886e+00      -3.411e+00       3.094e-01          -0.180          -0.048           0.982       2.152e-01         -0.7227
 419       2.144e+00      -3.411e+00       3.442e-01          -0.097          -0.012           0.995       2.799e-01         -0.5847
 420       2.465e+00      -3.411e+00       3.663e-01          -0.044           0.011           0.999       3.298e-01         -0.5223
 421       2.829e+00      -3.411e+00       3.745e-01          -0.003           0.027           1.000       3.614e-01         -0.4867
 422       3.216e+00      -3.411e+00       3.680e-01           0.036           0.041           0.999       3.726e-01         -0.4636
 423       3.603e+00      -3.411e+00       3.458e-01           0.079           0.056           0.995       3.629e-01         -0.4376
 424       3.968e+00      -3.411e+00       3.076e-01           0.132           0.072           0.989       3.332e-01         -0.3843
 425       4.288e+00      -3.412e+00       2.560e-01           0.189           0.088           0.978       2.847e-01         -0.2965
 426       4.547e+00      -3.412e+00       1.995e-01           0.243           0.102           0.965       2.191e-01         -0.1756
 427       4.728e+00      -3.412e+00       1.510e-01           0.280           0.111           0.954       1.384e-01         -0.0741
 428       4.821e+00      -3.412e+00       1.180e-01           0.463           0.152           0.873       5.135e-02          0.1176
Strip 17
 429       4.589e+00      -2.454e+00       6.235e-02          -0.063          -0.062          -0.996       4.904e-02          0.1263
 430       4.490e+00      -2.454e+00       7.880e-02          -0.196          -0.093          -0.976       1.472e-01          0.3093
 431       4.297e+00      -2.454e+00       9.833e-02          -0.039          -0.054          -0.998       2.307e-01          0.4077
 432       4.021e+00      -2.454e+00       8.364e-02           0.123          -0.011          -0.992       3.057e-01          0.3585
 433       3.679e+00      -2.454e+00       2.459e-02           0.209           0.015          -0.978       3.671e-01          0.2023
 434       3.291e+00      -2.455e+00      -5.347e-02           0.186           0.007          -0.983       4.006e-01         -0.0279
 435       2.878e+00      -2.455e+00      -1.105e-01           0.089          -0.026          -0.996       4.071e-01         -0.1902
 436       2.466e+00      -2.455e+00      -1.313e-01           0.010          -0.055          -0.998       3.942e-01         -0.2172
 437       2.077e+00      -2.455e+00      -1.251e-01          -0.045          -0.077          -0.996       3.603e-01         -0.1943
 438       1.735e+00      -2.455e+00      -1.011e-01          -0.099          -0.099          -0.990       3.064e-01         -0.1640
 439       1.460e+00      -2.455e+00      -6.391e-02          -0.177          -0.132          -0.975       2.360e-01         -0.1344
 440       1.267e+00      -2.454e+00      -1.183e-02          -0.372          -0.216          -0.903       1.591e-01          0.0227
 441       1.167e+00      -2.454e+00       6.292e-02          -0.800          -0.392          -0.455       1.071e-01          0.7402
 442       1.167e+00      -2.454e+00       1.510e-01          -0.809          -0.356           0.467       1.050e-01          0.1457
 443       1.267e+00      -2.454e+00       2.257e-01          -0.379          -0.140           0.915       1.572e-01         -0.8654
 444       1.460e+00      -2.453e+00       2.782e-01          -0.180          -0.048           0.982       2.343e-01         -0.6904
 445       1.735e+00      -2.453e+00       3.154e-01          -0.097          -0.012           0.995       3.047e-01         -0.5634
 446       2.077e+00      -2.453e+00       3.389e-01          -0.044           0.011           0.999       3.591e-01         -0.5075
 447       2.466e+00      -2.453e+00       3.476e-01          -0.003           0.027           1.000       3.935e-01         -0.4764
 448       2.878e+00      -2.453e+00       3.407e-01           0.036           0.041           0.999       4.057e-01         -0.4568
 449       3.291e+00      -2.453e+00       3.171e-01           0.079           0.056           0.995       3.951e-01         -0.4334
 450       3.679e+00      -2.453e+00       2.763e-01           0.132           0.072           0.989       3.628e-01         -0.3821
 451       4.021e+00      -2.454e+00       2.213e-01           0.189           0.088           0.978       3.101e-01         -0.2957
 452       4.297e+00      -2.454e+00       1.610e-01           0.243           0.102           0.965       2.386e-01         -0.1759
 453       4.490e+00      -2.454e+00       1.093e-01           0.280           0.111           0.954       1.507e-01         -0.0753
 454       4.589e+00      -2.454e+00       7.413e-02           0.463           0.152           0.873       5.592e-02          0.1156
Strip 18
 455       4.353e+00      -1.479e+00       1.695e-02          -0.063          -0.062          -0.996       5.286e-02          0.1233
 456       4.248e+00      -1.479e+00       3.444e-02          -0.195          -0.093          -0.976       1.587e-01          0.3069
 457       4.042e+00      -1.479e+00       5.520e-02          -0.039          -0.054          -0.998       2.487e-01          0.4054
 458       3.750e+00      -1.479e+00       3.959e-02           0.123          -0.011          -0.992       3.295e-01          0.3552
 459       3.386e+00      -1.479e+00      -2.320e-02           0.209           0.015          -0.978       3.957e-01          0.1967
 460       2.973e+00      -1.479e+00      -1.062e-01           0.186           0.007          -0.983       4.318e-01         -0.0362
 461       2.534e+00      -1.480e+00      -1.669e-01           0.089          -0.026          -0.996       4.389e-01         -0.1991
 462       2.096e+00      -1.480e+00      -1.890e-01           0.010          -0.055          -0.998       4.249e-01         -0.2249
 463       1.683e+00      -1.480e+00      -1.824e-01          -0.045          -0.077          -0.996       3.884e-01         -0.2008
 464       1.319e+00      -1.480e+00      -1.568e-01          -0.099          -0.099          -0.990       3.303e-01         -0.1714
 465       1.026e+00      -1.480e+00      -1.173e-01          -0.177          -0.132          -0.975       2.544e-01         -0.1472
 466       8.209e-01      -1.479e+00      -6.192e-02          -0.372          -0.216          -0.903       1.715e-01         -0.0045
 467       7.152e-01      -1.479e+00       1.756e-02          -0.799          -0.392          -0.455       1.155e-01          0.7274
 468       7.152e-01      -1.479e+00       1.112e-01          -0.810          -0.356           0.466       1.131e-01          0.2026
 469       8.209e-01      -1.479e+00       1.906e-01          -0.379          -0.140           0.915       1.694e-01         -0.7910
 470       1.026e+00      -1.479e+00       2.465e-01          -0.180          -0.048           0.982       2.526e-01         -0.6440
 471       1.319e+00      -1.479e+00       2.860e-01          -0.097          -0.012           0.995       3.285e-01         -0.5325
 472       1.683e+00      -1.479e+00       3.110e-01          -0.044           0.011           0.999       3.871e-01         -0.4866
 473       2.096e+00      -1.479e+00       3.203e-01          -0.003           0.027           1.000       4.241e-01         -0.4634
 474       2.534e+00      -1.479e+00       3.129e-01           0.036           0.041           0.999       4.373e-01         -0.4502
 475       2.973e+00      -1.479e+00       2.878e-01           0.079           0.056           0.995       4.260e-01         -0.4318
 476       3.386e+00      -1.479e+00       2.444e-01           0.132           0.072           0.989       3.911e-01         -0.3836
 477       3.750e+00      -1.479e+00       1.859e-01           0.189           0.088           0.978       3.343e-01         -0.2984
 478       4.042e+00      -1.479e+00       1.218e-01           0.243           0.102           0.965       2.572e-01         -0.1789
 479       4.248e+00      -1.479e+00       6.687e-02           0.280           0.111           0.954       1.624e-01         -0.0788
 480       4.353e+00      -1.479e+00       2.948e-02           0.463           0.152           0.873       6.029e-02          0.1116
Strip 19
 481       4.115e+00      -4.942e-01      -2.892e-02          -0.063          -0.062          -0.996       5.642e-02          0.1186
 482       4.003e+00      -4.942e-01      -1.038e-02          -0.195          -0.093          -0.976       1.694e-01          0.3034
 483       3.786e+00      -4.942e-01       1.164e-02          -0.039          -0.054          -0.998       2.655e-01          0.4004
 484       3.475e+00      -4.942e-01      -4.920e-03           0.123          -0.011          -0.992       3.517e-01          0.3437
 485       3.090e+00      -4.942e-01      -7.148e-02           0.209           0.015          -0.978       4.223e-01          0.1762
 486       2.652e+00      -4.943e-01      -1.595e-01           0.186           0.007          -0.983       4.608e-01         -0.0602
 487       2.187e+00      -4.943e-01      -2.238e-01           0.089          -0.026          -0.996       4.684e-01         -0.2146
 488       1.722e+00      -4.943e-01      -2.472e-01           0.010          -0.055          -0.998       4.536e-01         -0.2261
 489       1.284e+00      -4.943e-01      -2.402e-01          -0.045          -0.077          -0.996       4.146e-01         -0.1898
 490       8.987e-01      -4.943e-01      -2.132e-01          -0.099          -0.099          -0.990       3.525e-01         -0.1529
 491       5.881e-01      -4.943e-01      -1.712e-01          -0.177          -0.132          -0.975       2.716e-01         -0.1292
 492       3.705e-01      -4.943e-01      -1.125e-01          -0.371          -0.216          -0.903       1.831e-01         -0.0094
 493       2.584e-01      -4.942e-01      -2.827e-02          -0.799          -0.392          -0.456       1.233e-01          0.7114
 494       2.584e-01      -4.941e-01       7.104e-02          -0.810          -0.357           0.466       1.207e-01          0.2940
 495       3.705e-01      -4.941e-01       1.552e-01          -0.379          -0.140           0.915       1.808e-01         -0.6427
 496       5.881e-01      -4.941e-01       2.144e-01          -0.180          -0.048           0.982       2.695e-01         -0.5431
 497       8.987e-01      -4.940e-01       2.563e-01          -0.097          -0.012           0.995       3.506e-01         -0.4703
 498       1.284e+00      -4.940e-01       2.828e-01          -0.044           0.011           0.999       4.131e-01         -0.4488
 499       1.722e+00      -4.940e-01       2.926e-01          -0.003           0.027           1.000       4.527e-01         -0.4443
 500       2.187e+00      -4.940e-01       2.848e-01           0.036           0.041           0.999       4.668e-01         -0.4470
 501       2.652e+00      -4.940e-01       2.582e-01           0.079           0.056           0.995       4.547e-01         -0.4417
 502       3.090e+00      -4.941e-01       2.122e-01           0.132           0.072           0.989       4.175e-01         -0.4014
 503       3.475e+00      -4.941e-01       1.502e-01           0.189           0.088           0.978       3.568e-01         -0.3169
 504       3.786e+00      -4.941e-01       8.228e-02           0.243           0.102           0.965       2.745e-01         -0.1937
 505       4.003e+00      -4.942e-01       2.400e-02           0.280           0.111           0.954       1.734e-01         -0.0896
 506       4.115e+00      -4.942e-01      -1.564e-02           0.463           0.152           0.873       6.436e-02          0.1029
Strip 20
 507       4.115e+00       4.942e-01      -2.892e-02          -0.063           0.062          -0.996       5.642e-02          0.1186
 508       4.003e+00       4.942e-01      -1.038e-02          -0.195           0.093          -0.976       1.694e-01          0.3034
 509       3.786e+00       4.942e-01       1.164e-02          -0.039           0.054          -0.998       2.655e-01          0.4004
 510       3.475e+00       4.942e-01      -4.920e-03           0.123           0.011          -0.992       3.517e-01          0.3437
 511       3.090e+00       4.942e-01      -7.148e-02           0.209          -0.015          -0.978       4.223e-01          0.1762
 512       2.652e+00       4.943e-01      -1.595e-01           0.186          -0.007          -0.983       4.608e-01         -0.0602
 513       2.187e+00       4.943e-01      -2.238e-01           0.089           0.026          -0.996       4.684e-01         -0.2146
 514       1.722e+00       4.943e-01      -2.472e-01           0.010           0.055          -0.998       4.536e-01         -0.2261
 515       1.284e+00       4.943e-01      -2.402e-01          -0.045           0.077          -0.996       4.146e-01         -0.1898
 516       8.987e-01       4.943e-01      -2.132e-01          -0.099           0.099          -0.990       3.525e-01         -0.1529
 517       5.881e-01       4.943e-01      -1.712e-01          -0.177           0.132          -0.975       2.716e-01         -0.1292
 518       3.705e-01       4.943e-01      -1.125e-01          -0.371           0.216          -0.903       1.831e-01         -0.0094
 519       2.584e-01       4.942e-01      -2.827e-02          -0.799           0.392          -0.456       1.233e-01          0.7114
 520       2.584e-01       4.941e-01       7.104e-02          -0.810           0.357           0.466       1.207e-01          0.2940
 521       3.705e-01       4.941e-01       1.552e-01          -0.379           0.140           0.915       1.808e-01         -0.6427
 522       5.881e-01       4.941e-01       2.144e-01          -0.180           0.048           0.982       2.695e-01         -0.5431
 523       8.987e-01       4.940e-01       2.563e-01          -0.097           0.012           0.995       3.506e-01         -0.4703
 524       1.284e+00       4.940e-01       2.828e-01          -0.044          -0.011           0.999       4.131e-01         -0.4488
 525       1.722e+00       4.940e-01       2.926e-01          -0.003          -0.027           1.000       4.527e-01         -0.4443
 526       2.187e+00       4.940e-01       2.848e-01           0.036          -0.041           0.999       4.668e-01         -0.4470
 527       2.652e+00       4.940e-01       2.582e-01           0.079          -0.056           0.995       4.547e-01         -0.4417
 528       3.090e+00       4.941e-01       2.122e-01           0.132          -0.072           0.989       4.175e-01         -0.4014
 529       3.475e+00       4.941e-01       1.502e-01           0.189          -0.088           0.978       3.568e-01         -0.3169
 530       3.786e+00       4.941e-01       8.228e-02           0.243          -0.102           0.965       2.745e-01         -0.1937
 531       4.003e+00       4.942e-01       2.400e-02           0.280          -0.111           0.954       1.734e-01         -0.0896
 532       4.115e+00       4.942e-01      -1.564e-02           0.463          -0.152           0.873       6.436e-02          0.1029
Strip 21
 533       4.353e+00       1.479e+00       1.695e-02          -0.063           0.062          -0.996       5.286e-02          0.1233
 534       4.248e+00       1.479e+00       3.444e-02          -0.195           0.093          -0.976       1.587e-01          0.3069
 535       4.042e+00       1.479e+00       5.520e-02          -0.039           0.054          -0.998       2.487e-01          0.4054
 536       3.750e+00       1.479e+00       3.959e-02           0.123           0.011          -0.992       3.295e-01          0.3552
 537       3.386e+00       1.479e+00      -2.320e-02           0.209          -0.015          -0.978       3.957e-01          0.1967
 538       2.973e+00       1.479e+00      -1.062e-01           0.186          -0.007          -0.983       4.318e-01         -0.0362
 539       2.534e+00       1.480e+00      -1.669e-01           0.089           0.026          -0.996       4.389e-01         -0.1991
 540       2.096e+00       1.480e+00      -1.890e-01           0.010           0.055          -0.998       4.249e-01         -0.2249
 541       1.683e+00       1.480e+00      -1.824e-01          -0.045           0.077          -0.996       3.884e-01         -0.2008
 542       1.319e+00       1.480e+00      -1.568e-01          -0.099           0.099          -0.990       3.303e-01         -0.1714
 543       1.026e+00       1.480e+00      -1.173e-01          -0.177           0.132          -0.975       2.544e-01         -0.1472
 544       8.209e-01       1.479e+00      -6.192e-02          -0.372           0.216          -0.903       1.715e-01         -0.0045
 545       7.152e-01       1.479e+00       1.756e-02          -0.799           0.392          -0.455       1.155e-01          0.7274
 546       7.152e-01       1.479e+00       1.112e-01          -0.810           0.356           0.466       1.131e-01          0.2026
 547       8.209e-01       1.479e+00       1.906e-01          -0.379           0.140           0.915       1.694e-01         -0.7910
 548       1.026e+00       1.479e+00       2.465e-01          -0.180           0.048           0.982       2.526e-01         -0.6440
 549       1.319e+00       1.479e+00       2.860e-01          -0.097           0.012           0.995       3.285e-01         -0.5325
 550       1.683e+00       1.479e+00       3.110e-01          -0.044          -0.011           0.999       3.871e-01         -0.4866
 551       2.096e+00       1.479e+00       3.203e-01          -0.003          -0.027           1.000       4.241e-01         -0.4634
 552       2.534e+00       1.479e+00       3.129e-01           0.036          -0.041           0.999       4.373e-01         -0.4502
 553       2.973e+00       1.479e+00       2.878e-01           0.079          -0.056           0.995       4.260e-01         -0.4318
 554       3.386e+00       1.479e+00       2.444e-01           0.132          -0.072           0.989       3.911e-01         -0.3836
 555       3.750e+00       1.479e+00       1.859e-01           0.189          -0.088           0.978       3.343e-01         -0.2984
 556       4.042e+00       1.479e+00       1.218e-01           0.243          -0.102           0.965       2.572e-01         -0.1789
 557       4.248e+00       1.479e+00       6.687e-02           0.280          -0.111           0.954       1.624e-01         -0.0788
 558       4.353e+00       1.479e+00       2.948e-02           0.463          -0.152           0.873       6.029e-02          0.1116
Strip 22
 559       4.589e+00       2.454e+00       6.235e-02          -0.063           0.062          -0.996       4.904e-02          0.1263
 560       4.490e+00       2.454e+00       7.880e-02          -0.196           0.093          -0.976       1.472e-01          0.3093
 561       4.297e+00       2.454e+00       9.833e-02          -0.039           0.054          -0.998       2.307e-01          0.4077
 562       4.021e+00       2.454e+00       8.364e-02           0.123           0.011          -0.992       3.057e-01          0.3585
 563       3.679e+00       2.454e+00       2.459e-02           0.209          -0.015          -0.978       3.671e-01          0.2023
 564       3.291e+00       2.455e+00      -5.347e-02           0.186          -0.007          -0.983       4.006e-01         -0.0279
 565       2.878e+00       2.455e+00      -1.105e-01           0.089           0.026          -0.996       4.071e-01         -0.1902
 566       2.466e+00       2.455e+00      -1.313e-01           0.010           0.055          -0.998       3.942e-01         -0.2172
 567       2.077e+00       2.455e+00      -1.251e-01          -0.045           0.077          -0.996       3.603e-01         -0.1943
 568       1.735e+00       2.455e+00      -1.011e-01          -0.099           0.099          -0.990       3.064e-01         -0.1640
[...]
 852       5.612e+00       1.075e+01       3.589e-01           0.010           0.055          -0.998       8.182e-02         -0.1922
 853       5.432e+00       1.075e+01       3.618e-01          -0.045           0.077          -0.996       7.474e-02         -0.1602
 854       5.274e+00       1.075e+01       3.729e-01          -0.099           0.099          -0.990       6.350e-02         -0.1146
 855       5.147e+00       1.075e+01       3.901e-01          -0.177           0.132          -0.975       4.887e-02         -0.0556
 856       5.057e+00       1.075e+01       4.141e-01          -0.373           0.217          -0.902       3.287e-02          0.1538
 857       5.011e+00       1.074e+01       4.486e-01          -0.804           0.393          -0.446       2.212e-02          0.7871
 858       5.011e+00       1.074e+01       4.893e-01          -0.805           0.354           0.475       2.189e-02         -0.0753
 859       5.057e+00       1.074e+01       5.238e-01          -0.377           0.140           0.916       3.277e-02         -1.0954
 860       5.147e+00       1.074e+01       5.481e-01          -0.180           0.048           0.983       4.874e-02         -0.8158
 861       5.274e+00       1.074e+01       5.652e-01          -0.097           0.011           0.995       6.332e-02         -0.6385
 862       5.432e+00       1.074e+01       5.761e-01          -0.044          -0.011           0.999       7.456e-02         -0.5540
 863       5.612e+00       1.074e+01       5.801e-01          -0.003          -0.027           1.000       8.166e-02         -0.5032
 864       5.803e+00       1.074e+01       5.769e-01           0.036          -0.041           0.999       8.416e-02         -0.4695
 865       5.993e+00       1.074e+01       5.660e-01           0.079          -0.056           0.995       8.194e-02         -0.4368
 866       6.173e+00       1.074e+01       5.472e-01           0.132          -0.072           0.989       7.520e-02         -0.3803
 867       6.331e+00       1.074e+01       5.218e-01           0.190          -0.088           0.978       6.425e-02         -0.2915
 868       6.459e+00       1.074e+01       4.939e-01           0.243          -0.102           0.965       4.942e-02         -0.1705
 869       6.548e+00       1.074e+01       4.701e-01           0.281          -0.111           0.953       3.121e-02         -0.0692
 870       6.594e+00       1.074e+01       4.538e-01           0.465          -0.152           0.872       1.157e-02          0.1253
Strip 34
 871       6.690e+00       1.114e+01       4.669e-01          -0.063           0.062          -0.996       7.950e-03          0.1282
 872       6.647e+00       1.114e+01       4.740e-01          -0.196           0.093          -0.976       2.383e-02          0.3058
 873       6.562e+00       1.114e+01       4.826e-01          -0.039           0.054          -0.998       3.741e-02          0.4001
 874       6.442e+00       1.114e+01       4.761e-01           0.123           0.011          -0.992       4.964e-02          0.3504
 875       6.293e+00       1.114e+01       4.504e-01           0.209          -0.015          -0.978       5.967e-02          0.1978
 876       6.123e+00       1.114e+01       4.163e-01           0.185          -0.007          -0.983       6.510e-02         -0.0248
 877       5.943e+00       1.114e+01       3.915e-01           0.089           0.026          -0.996       6.611e-02         -0.1799
 878       5.763e+00       1.114e+01       3.824e-01           0.010           0.055          -0.998       6.395e-02         -0.2019
 879       5.593e+00       1.114e+01       3.851e-01          -0.045           0.077          -0.996       5.841e-02         -0.1718
 880       5.444e+00       1.114e+01       3.956e-01          -0.099           0.099          -0.990       4.963e-02         -0.1280
 881       5.323e+00       1.114e+01       4.118e-01          -0.177           0.132          -0.975       3.819e-02         -0.0718
 882       5.239e+00       1.114e+01       4.345e-01          -0.374           0.217          -0.902       2.568e-02          0.1327
 883       5.196e+00       1.114e+01       4.671e-01          -0.804           0.394          -0.445       1.728e-02          0.7798
 884       5.196e+00       1.114e+01       5.055e-01          -0.805           0.354           0.476       1.712e-02         -0.0483
 885       5.239e+00       1.114e+01       5.381e-01          -0.377           0.139           0.916       2.562e-02         -1.0602
 886       5.323e+00       1.114e+01       5.610e-01          -0.180           0.048           0.983       3.810e-02         -0.7915
 887       5.444e+00       1.114e+01       5.772e-01          -0.097           0.011           0.995       4.950e-02         -0.6175
 888       5.593e+00       1.114e+01       5.874e-01          -0.044          -0.011           0.999       5.828e-02         -0.5328
 889       5.763e+00       1.114e+01       5.913e-01          -0.003          -0.027           1.000       6.382e-02         -0.4809
 890       5.943e+00       1.114e+01       5.882e-01           0.036          -0.041           0.999       6.578e-02         -0.4469
 891       6.123e+00       1.114e+01       5.779e-01           0.079          -0.056           0.995       6.404e-02         -0.4155
 892       6.293e+00       1.114e+01       5.602e-01           0.132          -0.072           0.989       5.877e-02         -0.3622
 893       6.442e+00       1.114e+01       5.362e-01           0.190          -0.088           0.978       5.021e-02         -0.2784
 894       6.562e+00       1.114e+01       5.099e-01           0.243          -0.102           0.965       3.862e-02         -0.1624
 895       6.647e+00       1.114e+01       4.873e-01           0.281          -0.111           0.953       2.439e-02         -0.0651
 896       6.690e+00       1.114e+01       4.720e-01           0.465          -0.152           0.872       9.043e-03          0.1282
Strip 35
 897       6.768e+00       1.146e+01       4.818e-01          -0.063           0.062          -0.996       5.943e-03          0.1214
 898       6.726e+00       1.146e+01       4.886e-01          -0.196           0.093          -0.976       1.782e-02          0.2967
 899       6.646e+00       1.146e+01       4.967e-01          -0.039           0.054          -0.998       2.796e-02          0.3893
 900       6.531e+00       1.146e+01       4.906e-01           0.122           0.011          -0.992       3.711e-02          0.3400
 901       6.389e+00       1.146e+01       4.661e-01           0.209          -0.015          -0.978       4.461e-02          0.1889
 902       6.228e+00       1.146e+01       4.337e-01           0.185          -0.007          -0.983       4.868e-02         -0.0319
 903       6.056e+00       1.146e+01       4.100e-01           0.089           0.026          -0.996       4.942e-02         -0.1866
 904       5.884e+00       1.147e+01       4.014e-01           0.010           0.055          -0.998       4.781e-02         -0.2112
 905       5.723e+00       1.146e+01       4.040e-01          -0.045           0.077          -0.996       4.366e-02         -0.1862
 906       5.581e+00       1.146e+01       4.139e-01          -0.099           0.099          -0.990       3.709e-02         -0.1478
 907       5.466e+00       1.146e+01       4.294e-01          -0.178           0.132          -0.975       2.854e-02         -0.0976
 908       5.386e+00       1.146e+01       4.510e-01          -0.374           0.217          -0.902       1.919e-02          0.0980
 909       5.344e+00       1.146e+01       4.820e-01          -0.805           0.394          -0.444       1.291e-02          0.7648
 910       5.344e+00       1.146e+01       5.186e-01          -0.805           0.354           0.477       1.280e-02         -0.0098
 911       5.386e+00       1.146e+01       5.496e-01          -0.377           0.139           0.916       1.916e-02         -1.0088
 912       5.466e+00       1.146e+01       5.715e-01          -0.180           0.048           0.983       2.849e-02         -0.7544
 913       5.581e+00       1.146e+01       5.869e-01          -0.097           0.011           0.995       3.700e-02         -0.5834
 914       5.723e+00       1.146e+01       5.966e-01          -0.044          -0.011           0.999       4.357e-02         -0.4966
 915       5.884e+00       1.146e+01       6.003e-01          -0.003          -0.027           1.000       4.771e-02         -0.4424
 916       6.056e+00       1.146e+01       5.974e-01           0.036          -0.041           0.999       4.917e-02         -0.4084
 917       6.228e+00       1.146e+01       5.876e-01           0.079          -0.056           0.995       4.787e-02         -0.3803
 918       6.389e+00       1.146e+01       5.706e-01           0.132          -0.072           0.989       4.393e-02         -0.3339
 919       6.531e+00       1.146e+01       5.478e-01           0.190          -0.088           0.978       3.753e-02         -0.2592
 920       6.646e+00       1.146e+01       5.228e-01           0.243          -0.102           0.965       2.886e-02         -0.1527
 921       6.726e+00       1.146e+01       5.013e-01           0.281          -0.111           0.953       1.823e-02         -0.0637
 922       6.768e+00       1.146e+01       4.867e-01           0.465          -0.152           0.872       6.758e-03          0.1273
Strip 36
 923       6.826e+00       1.170e+01       4.931e-01          -0.063           0.062          -0.996       4.112e-03          0.0956
 924       6.787e+00       1.170e+01       4.997e-01          -0.196           0.093          -0.976       1.233e-02          0.2662
 925       6.709e+00       1.170e+01       5.075e-01          -0.039           0.054          -0.998       1.935e-02          0.3575
 926       6.599e+00       1.170e+01       5.016e-01           0.122           0.011          -0.992       2.568e-02          0.3128
 927       6.462e+00       1.171e+01       4.780e-01           0.209          -0.015          -0.978       3.088e-02          0.1706
 928       6.307e+00       1.171e+01       4.468e-01           0.185          -0.007          -0.983       3.369e-02         -0.0391
 929       6.142e+00       1.171e+01       4.240e-01           0.089           0.026          -0.996       3.420e-02         -0.1850
 930       5.977e+00       1.171e+01       4.157e-01           0.010           0.055          -0.998       3.308e-02         -0.2097
 931       5.821e+00       1.171e+01       4.182e-01          -0.045           0.077          -0.996       3.021e-02         -0.1944
 932       5.684e+00       1.171e+01       4.278e-01          -0.099           0.099          -0.990       2.567e-02         -0.1713
 933       5.574e+00       1.171e+01       4.427e-01          -0.178           0.132          -0.975       1.975e-02         -0.1369
 934       5.497e+00       1.171e+01       4.635e-01          -0.374           0.217          -0.902       1.327e-02          0.0416
 935       5.457e+00       1.170e+01       4.933e-01          -0.805           0.394          -0.444       8.930e-03          0.7311
 936       5.457e+00       1.170e+01       5.285e-01          -0.804           0.354           0.478       8.863e-03          0.0325
 937       5.497e+00       1.170e+01       5.584e-01          -0.377           0.139           0.916       1.327e-02         -0.9420
 938       5.574e+00       1.170e+01       5.794e-01          -0.180           0.048           0.983       1.972e-02         -0.7003
 939       5.684e+00       1.170e+01       5.942e-01          -0.097           0.011           0.995       2.561e-02         -0.5281
 940       5.821e+00       1.170e+01       6.036e-01          -0.044          -0.011           0.999       3.015e-02         -0.4364
 941       5.977e+00       1.170e+01       6.071e-01          -0.003          -0.027           1.000       3.302e-02         -0.3817
 942       6.142e+00       1.170e+01       6.043e-01           0.036          -0.041           0.999       3.402e-02         -0.3517
 943       6.307e+00       1.170e+01       5.949e-01           0.079          -0.056           0.995       3.312e-02         -0.3315
 944       6.462e+00       1.170e+01       5.786e-01           0.132          -0.072           0.989       3.040e-02         -0.2974
 945       6.599e+00       1.170e+01       5.566e-01           0.190          -0.088           0.978       2.597e-02         -0.2392
 946       6.709e+00       1.170e+01       5.325e-01           0.243          -0.102           0.965       1.997e-02         -0.1510
 947       6.787e+00       1.170e+01       5.119e-01           0.281          -0.111           0.953       1.261e-02         -0.0796
 948       6.826e+00       1.170e+01       4.978e-01           0.465          -0.152           0.872       4.675e-03          0.1070
Strip 37
 949       6.866e+00       1.187e+01       5.007e-01          -0.063           0.062          -0.996       2.413e-03         -0.0112
 950       6.827e+00       1.187e+01       5.071e-01          -0.196           0.093          -0.976       7.233e-03          0.1431
 951       6.752e+00       1.187e+01       5.147e-01          -0.039           0.054          -0.998       1.136e-02          0.2445
 952       6.644e+00       1.187e+01       5.090e-01           0.122           0.011          -0.992       1.507e-02          0.2349
 953       6.511e+00       1.187e+01       4.860e-01           0.209          -0.015          -0.978       1.812e-02          0.1288
 954       6.360e+00       1.187e+01       4.556e-01           0.185          -0.007          -0.983       1.977e-02         -0.0482
 955       6.199e+00       1.187e+01       4.334e-01           0.089           0.026          -0.996       2.007e-02         -0.1687
 956       6.038e+00       1.187e+01       4.253e-01           0.010           0.055          -0.998       1.941e-02         -0.1862
 957       5.887e+00       1.187e+01       4.278e-01          -0.045           0.077          -0.996       1.773e-02         -0.1784
 958       5.754e+00       1.187e+01       4.371e-01          -0.099           0.099          -0.990       1.506e-02         -0.1774
 959       5.646e+00       1.187e+01       4.516e-01          -0.178           0.132          -0.975       1.159e-02         -0.1823
 960       5.571e+00       1.187e+01       4.718e-01          -0.374           0.217          -0.902       7.787e-03         -0.0562
 961       5.532e+00       1.187e+01       5.009e-01          -0.805           0.394          -0.443       5.239e-03          0.6237
 962       5.532e+00       1.187e+01       5.352e-01          -0.804           0.353           0.478       5.203e-03          0.0423
 963       5.571e+00       1.186e+01       5.642e-01          -0.377           0.139           0.916       7.787e-03         -0.8567
 964       5.646e+00       1.186e+01       5.847e-01          -0.180           0.048           0.983       1.157e-02         -0.6113
 965       5.754e+00       1.186e+01       5.991e-01          -0.097           0.011           0.995       1.503e-02         -0.4359
 966       5.887e+00       1.186e+01       6.082e-01          -0.044          -0.011           0.999       1.769e-02         -0.3511
 967       6.038e+00       1.186e+01       6.116e-01          -0.003          -0.027           1.000       1.938e-02         -0.3069
 968       6.199e+00       1.186e+01       6.089e-01           0.036          -0.041           0.999       1.997e-02         -0.2856
 969       6.360e+00       1.186e+01       5.998e-01           0.079          -0.056           0.995       1.944e-02         -0.2762
 970       6.511e+00       1.186e+01       5.839e-01           0.132          -0.072           0.989       1.784e-02         -0.2655
 971       6.644e+00       1.186e+01       5.625e-01           0.190          -0.088           0.978       1.524e-02         -0.2501
 972       6.752e+00       1.187e+01       5.391e-01           0.243          -0.102           0.965       1.172e-02         -0.2175
 973       6.827e+00       1.187e+01       5.189e-01           0.281          -0.111           0.953       7.400e-03         -0.1971
 974       6.866e+00       1.187e+01       5.053e-01           0.465          -0.152           0.872       2.743e-03         -0.0226
Strip 38
 975       6.885e+00       1.195e+01       5.045e-01          -0.063           0.062          -0.996       7.953e-04         -0.1332
 976       6.847e+00       1.195e+01       5.108e-01          -0.196           0.093          -0.976       2.384e-03         -0.0318
 977       6.773e+00       1.195e+01       5.183e-01          -0.039           0.054          -0.998       3.742e-03          0.0504
 978       6.667e+00       1.195e+01       5.126e-01           0.122           0.011          -0.992       4.967e-03          0.0852
 979       6.536e+00       1.195e+01       4.900e-01           0.209          -0.015          -0.978       5.972e-03          0.0473
 980       6.386e+00       1.195e+01       4.600e-01           0.185          -0.007          -0.983       6.516e-03         -0.0610
 981       6.228e+00       1.195e+01       4.382e-01           0.089           0.026          -0.996       6.616e-03         -0.1392
 982       6.069e+00       1.195e+01       4.302e-01           0.010           0.055          -0.998       6.398e-03         -0.1489
 983       5.920e+00       1.195e+01       4.326e-01          -0.045           0.077          -0.996       5.843e-03         -0.1440
 984       5.789e+00       1.195e+01       4.418e-01          -0.099           0.099          -0.990       4.963e-03         -0.1466
 985       5.683e+00       1.195e+01       4.560e-01          -0.178           0.132          -0.975       3.818e-03         -0.1619
 986       5.608e+00       1.195e+01       4.760e-01          -0.374           0.217          -0.902       2.566e-03         -0.0870
 987       5.570e+00       1.195e+01       5.047e-01          -0.805           0.394          -0.443       1.726e-03          0.5197
 988       5.570e+00       1.195e+01       5.385e-01          -0.804           0.353           0.478       1.715e-03          0.0738
 989       5.608e+00       1.195e+01       5.671e-01          -0.376           0.139           0.916       2.567e-03         -0.7030
 990       5.683e+00       1.195e+01       5.873e-01          -0.180           0.048           0.983       3.814e-03         -0.4809
 991       5.789e+00       1.194e+01       6.016e-01          -0.097           0.011           0.995       4.953e-03         -0.3392
 992       5.920e+00       1.194e+01       6.106e-01          -0.044          -0.011           0.999       5.832e-03         -0.2785
 993       6.069e+00       1.194e+01       6.139e-01          -0.003          -0.027           1.000       6.386e-03         -0.2462
 994       6.228e+00       1.194e+01       6.113e-01           0.036          -0.041           0.999       6.580e-03         -0.2273
 995       6.386e+00       1.194e+01       6.022e-01           0.079          -0.056           0.995       6.406e-03         -0.2145
 996       6.536e+00       1.195e+01       5.866e-01           0.132          -0.072           0.989       5.878e-03         -0.2041
 997       6.667e+00       1.195e+01       5.654e-01           0.190          -0.088           0.978       5.021e-03         -0.2128
 998       6.773e+00       1.195e+01       5.423e-01           0.243          -0.102           0.965       3.862e-03         -0.2478
 999       6.847e+00       1.195e+01       5.225e-01           0.281          -0.111           0.953       2.438e-03         -0.2983
1000       6.885e+00       1.195e+01       5.090e-01           0.465          -0.152           0.872       9.040e-04         -0.1535










