xflr5 v6.61

Plane Name
T1-10.0 m/s-Panel-0.0kg-x0.0m-Inviscid
QInf  =   10.000000 m/s
Alpha =    0.000000
Beta  =    0.000
Phi   =    0.000
Ctrl  =    0.000
CL    =    0.378233
Cy    =    0.000000
Cd    =    0.005066     ICd   =    0.005066     PCd   =    0.000000
Cl   = 4.28611e-16
Cm   =   -0.492669
ICn   =   -0.000000     PCn   =   -0.000000 
XCP   =    4.033427     YCP   =   -0.000000     ZCP   =    0.446583  
XNP   =    0.000000
Bending = 3509.100517

Main Wing
  y-span        Chord      Ai         Cl        PCd          ICd        CmGeom    CmAirf@chord/4    XTrtop    XTrBot      XCP       BM
  -11.9595     1.3346    -5.194    0.143507    0.000000    0.013046   -0.814169   -0.051388     0.0000    0.0000    0.5463    0.0000
  -11.8778     1.3530    -3.576    0.230588    0.000000    0.014412   -1.135908   -0.077491     0.0000    0.0000    0.5666    0.0405
  -11.7150     1.3896    -2.418    0.298225    0.000000    0.012594   -1.337606   -0.088611     0.0000    0.0000    0.5448    0.5143
  -11.4722     1.4442    -1.686    0.344938    0.000000    0.010153   -1.457706   -0.097261     0.0000    0.0000    0.5308    2.5135
  -11.1509     1.5165    -1.252    0.376163    0.000000    0.008221   -1.487757   -0.102957     0.0000    0.0000    0.5216    8.0149
  -10.7535     1.6059    -0.986    0.395927    0.000000    0.006815   -1.446544   -0.106486     0.0000    0.0000    0.5161   19.9775
  -10.2827     1.7118    -0.819    0.407264    0.000000    0.005823   -1.357634   -0.108562     0.0000    0.0000    0.5133   42.3791
   -9.7416     1.8336    -0.716    0.412554    0.000000    0.005159   -1.241668   -0.109746     0.0000    0.0000    0.5126   80.2058
   -9.1339     1.9702    -0.658    0.413548    0.000000    0.004749   -1.113869   -0.110397     0.0000    0.0000    0.5135   139.3977
   -8.4639     2.1210    -0.630    0.411458    0.000000    0.004527   -0.984392   -0.110736     0.0000    0.0000    0.5158   226.7468
   -7.7361     2.2847    -0.625    0.407074    0.000000    0.004438   -0.859453   -0.110886     0.0000    0.0000    0.5192   349.7393
   -6.9554     2.4603    -0.634    0.400887    0.000000    0.004440   -0.742628   -0.110915     0.0000    0.0000    0.5237   516.3332
   -6.1271     2.6466    -0.656    0.393182    0.000000    0.004501   -0.635696   -0.110867     0.0000    0.0000    0.5293   734.6680
   -5.2571     2.8424    -0.685    0.384086    0.000000    0.004596   -0.539320   -0.110771     0.0000    0.0000    0.5361   1012.7087
   -4.3511     3.0462    -0.720    0.373594    0.000000    0.004699   -0.453494   -0.110646     0.0000    0.0000    0.5443   1357.8301
   -3.4154     3.2567    -0.758    0.361582    0.000000    0.004784   -0.377849   -0.110527     0.0000    0.0000    0.5544   1776.3523
   -2.4564     3.4724    -0.792    0.347783    0.000000    0.004810   -0.311899   -0.110481     0.0000    0.0000    0.5672   2273.0424
   -1.4806     3.6919    -0.805    0.331632    0.000000    0.004669   -0.255199   -0.110648     0.0000    0.0000    0.5840   2850.5982
   -0.4947     3.9137    -0.706    0.311644    0.000000    0.003857   -0.207996   -0.111691     0.0000    0.0000    0.6085   3509.1005
    0.4947     3.9137    -0.706    0.311644    0.000000    0.003857   -0.207996   -0.111691     0.0000    0.0000    0.6085   3509.1005
    1.4806     3.6919    -0.805    0.331632    0.000000    0.004669   -0.255199   -0.110648     0.0000    0.0000    0.5840   2850.5982
    2.4564     3.4724    -0.792    0.347783    0.000000    0.004810   -0.311899   -0.110481     0.0000    0.0000    0.5672   2273.0424
    3.4154     3.2567    -0.758    0.361582    0.000000    0.004784   -0.377849   -0.110527     0.0000    0.0000    0.5544   1776.3523
    4.3511     3.0462    -0.720    0.373594    0.000000    0.004699   -0.453494   -0.110646     0.0000    0.0000    0.5443   1357.8301
    5.2571     2.8424    -0.685    0.384086    0.000000    0.004596   -0.539320   -0.110771     0.0000    0.0000    0.5361   1012.7087
    6.1271     2.6466    -0.656    0.393182    0.000000    0.004501   -0.635696   -0.110867     0.0000    0.0000    0.5293   734.6680
    6.9554     2.4603    -0.634    0.400887    0.000000    0.004440   -0.742628   -0.110915     0.0000    0.0000    0.5237   516.3332
    7.7361     2.2847    -0.625    0.407074    0.000000    0.004438   -0.859453   -0.110886     0.0000    0.0000    0.5192   349.7393
    8.4639     2.1210    -0.630    0.411458    0.000000    0.004527   -0.984392   -0.110736     0.0000    0.0000    0.5158   226.7468
    9.1339     1.9702    -0.658    0.413548    0.000000    0.004749   -1.113869   -0.110397     0.0000    0.0000    0.5135   139.3977
    9.7416     1.8336    -0.716    0.412554    0.000000    0.005159   -1.241668   -0.109746     0.0000    0.0000    0.5126   80.2058
   10.2827     1.7118    -0.819    0.407264    0.000000    0.005823   -1.357634   -0.108562     0.0000    0.0000    0.5133   42.3791
   10.7535     1.6059    -0.986    0.395927    0.000000    0.006815   -1.446544   -0.106486     0.0000    0.0000    0.5161   19.9775
   11.1509     1.5165    -1.252    0.376163    0.000000    0.008221   -1.487757   -0.102957     0.0000    0.0000    0.5216    8.0149
   11.4722     1.4442    -1.686    0.344938    0.000000    0.010153   -1.457706   -0.097261     0.0000    0.0000    0.5308    2.5135
   11.7150     1.3896    -2.418    0.298225    0.000000    0.012594   -1.337606   -0.088611     0.0000    0.0000    0.5448    0.5143
   11.8778     1.3530    -3.576    0.230588    0.000000    0.014412   -1.135908   -0.077491     0.0000    0.0000    0.5666    0.0405
   11.9595     1.3346    -5.194    0.143507    0.000000    0.013046   -0.814169   -0.051388     0.0000    0.0000    0.5463    0.0000


Main Wing Cp Coefficients
 Panel     CtrlPt.x        CtrlPt.y        CtrlPt.z       Nx      Ny       Nz        Area       Cp
Main WingCp Coefficients
Strip 1
  13       6.885e+00      -1.195e+01       5.045e-01          -0.063          -0.062          -0.996       7.953e-04         -0.0724
  14       6.847e+00      -1.195e+01       5.108e-01          -0.196          -0.093          -0.976       2.384e-03          0.0361
  15       6.773e+00      -1.195e+01       5.183e-01          -0.039          -0.054          -0.998       3.742e-03          0.1165
  16       6.667e+00      -1.195e+01       5.126e-01           0.122          -0.011          -0.992       4.967e-03          0.1325
  17       6.536e+00      -1.195e+01       4.900e-01           0.209           0.015          -0.978       5.972e-03          0.0742
  18       6.386e+00      -1.195e+01       4.600e-01           0.185           0.007          -0.983       6.516e-03         -0.0499
  19       6.228e+00      -1.195e+01       4.382e-01           0.089          -0.026          -0.996       6.616e-03         -0.1396
  20       6.069e+00      -1.195e+01       4.302e-01           0.010          -0.055          -0.998       6.398e-03         -0.1561
  21       5.920e+00      -1.195e+01       4.326e-01          -0.045          -0.077          -0.996       5.843e-03         -0.1569
  22       5.789e+00      -1.195e+01       4.418e-01          -0.099          -0.099          -0.990       4.963e-03         -0.1688
  23       5.683e+00      -1.195e+01       4.560e-01          -0.178          -0.132          -0.975       3.818e-03         -0.2059
  24       5.608e+00      -1.195e+01       4.760e-01          -0.374          -0.217          -0.902       2.566e-03         -0.1784
  25       5.570e+00      -1.195e+01       5.047e-01          -0.805          -0.394          -0.443       1.726e-03          0.4731
  26       5.570e+00      -1.195e+01       5.385e-01          -0.804          -0.353           0.478       1.715e-03          0.1958
  27       5.608e+00      -1.195e+01       5.671e-01          -0.376          -0.139           0.916       2.567e-03         -0.5726
  28       5.683e+00      -1.195e+01       5.873e-01          -0.180          -0.048           0.983       3.814e-03         -0.4187
  29       5.789e+00      -1.194e+01       6.016e-01          -0.097          -0.011           0.995       4.953e-03         -0.3028
  30       5.920e+00      -1.194e+01       6.106e-01          -0.044           0.011           0.999       5.832e-03         -0.2523
  31       6.069e+00      -1.194e+01       6.139e-01          -0.003           0.027           1.000       6.386e-03         -0.2254
  32       6.228e+00      -1.194e+01       6.113e-01           0.036           0.041           0.999       6.580e-03         -0.2096
  33       6.386e+00      -1.194e+01       6.022e-01           0.079           0.056           0.995       6.406e-03         -0.1976
  34       6.536e+00      -1.195e+01       5.866e-01           0.132           0.072           0.989       5.878e-03         -0.1822
  35       6.667e+00      -1.195e+01       5.654e-01           0.190           0.088           0.978       5.021e-03         -0.1757
  36       6.773e+00      -1.195e+01       5.423e-01           0.243           0.102           0.965       3.862e-03         -0.1879
  37       6.847e+00      -1.195e+01       5.225e-01           0.281           0.111           0.953       2.438e-03         -0.2243
  38       6.885e+00      -1.195e+01       5.090e-01           0.465           0.152           0.872       9.040e-04         -0.0843
Strip 2
  39       6.866e+00      -1.187e+01       5.007e-01          -0.063          -0.062          -0.996       2.413e-03          0.0222
  40       6.827e+00      -1.187e+01       5.071e-01          -0.196          -0.093          -0.976       7.233e-03          0.1774
  41       6.752e+00      -1.187e+01       5.147e-01          -0.039          -0.054          -0.998       1.136e-02          0.2788
  42       6.644e+00      -1.187e+01       5.090e-01           0.122          -0.011          -0.992       1.507e-02          0.2602
  43       6.511e+00      -1.187e+01       4.860e-01           0.209           0.015          -0.978       1.812e-02          0.1433
  44       6.360e+00      -1.187e+01       4.556e-01           0.185           0.007          -0.983       1.977e-02         -0.0440
  45       6.199e+00      -1.187e+01       4.334e-01           0.089          -0.026          -0.996       2.007e-02         -0.1743
  46       6.038e+00      -1.187e+01       4.253e-01           0.010          -0.055          -0.998       1.941e-02         -0.1990
  47       5.887e+00      -1.187e+01       4.278e-01          -0.045          -0.077          -0.996       1.773e-02         -0.1993
  48       5.754e+00      -1.187e+01       4.371e-01          -0.099          -0.099          -0.990       1.506e-02         -0.2122
  49       5.646e+00      -1.187e+01       4.516e-01          -0.178          -0.132          -0.975       1.159e-02         -0.2465
  50       5.571e+00      -1.187e+01       4.718e-01          -0.374          -0.217          -0.902       7.787e-03         -0.1779
  51       5.532e+00      -1.187e+01       5.009e-01          -0.805          -0.394          -0.443       5.239e-03          0.5661
  52       5.532e+00      -1.187e+01       5.352e-01          -0.804          -0.353           0.478       5.203e-03          0.2045
  53       5.571e+00      -1.186e+01       5.642e-01          -0.377          -0.139           0.916       7.787e-03         -0.6851
  54       5.646e+00      -1.186e+01       5.847e-01          -0.180          -0.048           0.983       1.157e-02         -0.5278
  55       5.754e+00      -1.186e+01       5.991e-01          -0.097          -0.011           0.995       1.503e-02         -0.3889
  56       5.887e+00      -1.186e+01       6.082e-01          -0.044           0.011           0.999       1.769e-02         -0.3198
  57       6.038e+00      -1.186e+01       6.116e-01          -0.003           0.027           1.000       1.938e-02         -0.2836
  58       6.199e+00      -1.186e+01       6.089e-01           0.036           0.041           0.999       1.997e-02         -0.2666
  59       6.360e+00      -1.186e+01       5.998e-01           0.079           0.056           0.995       1.944e-02         -0.2585
  60       6.511e+00      -1.186e+01       5.839e-01           0.132           0.072           0.989       1.784e-02         -0.2454
  61       6.644e+00      -1.186e+01       5.625e-01           0.190           0.088           0.978       1.524e-02         -0.2236
  62       6.752e+00      -1.187e+01       5.391e-01           0.243           0.102           0.965       1.172e-02         -0.1837
  63       6.827e+00      -1.187e+01       5.189e-01           0.281           0.111           0.953       7.400e-03         -0.1591
  64       6.866e+00      -1.187e+01       5.053e-01           0.465           0.152           0.872       2.743e-03          0.0074
Strip 3
  65       6.826e+00      -1.170e+01       4.931e-01          -0.063          -0.062          -0.996       4.112e-03          0.1057
  66       6.787e+00      -1.170e+01       4.997e-01          -0.196          -0.093          -0.976       1.233e-02          0.2736
  67       6.709e+00      -1.170e+01       5.075e-01          -0.039          -0.054          -0.998       1.935e-02          0.3677
  68       6.599e+00      -1.170e+01       5.016e-01           0.122          -0.011          -0.992       2.568e-02          0.3226
  69       6.462e+00      -1.171e+01       4.780e-01           0.209           0.015          -0.978       3.088e-02          0.1763
  70       6.307e+00      -1.171e+01       4.468e-01           0.185           0.007          -0.983       3.369e-02         -0.0414
  71       6.142e+00      -1.171e+01       4.240e-01           0.089          -0.026          -0.996       3.420e-02         -0.1975
  72       5.977e+00      -1.171e+01       4.157e-01           0.010          -0.055          -0.998       3.308e-02         -0.2313
  73       5.821e+00      -1.171e+01       4.182e-01          -0.045          -0.077          -0.996       3.021e-02         -0.2274
  74       5.684e+00      -1.171e+01       4.278e-01          -0.099          -0.099          -0.990       2.567e-02         -0.2229
  75       5.574e+00      -1.171e+01       4.427e-01          -0.178          -0.132          -0.975       1.975e-02         -0.2227
  76       5.497e+00      -1.171e+01       4.635e-01          -0.374          -0.217          -0.902       1.327e-02         -0.1047
  77       5.457e+00      -1.170e+01       4.933e-01          -0.805          -0.394          -0.444       8.930e-03          0.6677
  78       5.457e+00      -1.170e+01       5.285e-01          -0.804          -0.354           0.478       8.863e-03          0.2299
  79       5.497e+00      -1.170e+01       5.584e-01          -0.377          -0.139           0.916       1.327e-02         -0.7317
  80       5.574e+00      -1.170e+01       5.794e-01          -0.180          -0.048           0.983       1.972e-02         -0.5920
  81       5.684e+00      -1.170e+01       5.942e-01          -0.097          -0.011           0.995       2.561e-02         -0.4652
  82       5.821e+00      -1.170e+01       6.036e-01          -0.044           0.011           0.999       3.015e-02         -0.3959
  83       5.977e+00      -1.170e+01       6.071e-01          -0.003           0.027           1.000       3.302e-02         -0.3536
  84       6.142e+00      -1.170e+01       6.043e-01           0.036           0.041           0.999       3.402e-02         -0.3311
  85       6.307e+00      -1.170e+01       5.949e-01           0.079           0.056           0.995       3.312e-02         -0.3157
  86       6.462e+00      -1.170e+01       5.786e-01           0.132           0.072           0.989       3.040e-02         -0.2850
  87       6.599e+00      -1.170e+01       5.566e-01           0.190           0.088           0.978       2.597e-02         -0.2293
  88       6.709e+00      -1.170e+01       5.325e-01           0.243           0.102           0.965       1.997e-02         -0.1433
  89       6.787e+00      -1.170e+01       5.119e-01           0.281           0.111           0.953       1.261e-02         -0.0731
  90       6.826e+00      -1.170e+01       4.978e-01           0.465           0.152           0.872       4.675e-03          0.1056
Strip 4
  91       6.768e+00      -1.146e+01       4.818e-01          -0.063          -0.062          -0.996       5.943e-03          0.1274
  92       6.726e+00      -1.146e+01       4.886e-01          -0.196          -0.093          -0.976       1.782e-02          0.2986
  93       6.646e+00      -1.146e+01       4.967e-01          -0.039          -0.054          -0.998       2.796e-02          0.3932
  94       6.531e+00      -1.146e+01       4.906e-01           0.122          -0.011          -0.992       3.711e-02          0.3435
  95       6.389e+00      -1.146e+01       4.661e-01           0.209           0.015          -0.978       4.461e-02          0.1888
  96       6.228e+00      -1.146e+01       4.337e-01           0.185           0.007          -0.983       4.868e-02         -0.0403
  97       6.056e+00      -1.146e+01       4.100e-01           0.089          -0.026          -0.996       4.942e-02         -0.2061
  98       5.884e+00      -1.147e+01       4.014e-01           0.010          -0.055          -0.998       4.781e-02         -0.2414
  99       5.723e+00      -1.146e+01       4.040e-01          -0.045          -0.077          -0.996       4.366e-02         -0.2294
 100       5.581e+00      -1.146e+01       4.139e-01          -0.099          -0.099          -0.990       3.709e-02         -0.2109
 101       5.466e+00      -1.146e+01       4.294e-01          -0.178          -0.132          -0.975       2.854e-02         -0.1958
 102       5.386e+00      -1.146e+01       4.510e-01          -0.374          -0.217          -0.902       1.919e-02         -0.0611
 103       5.344e+00      -1.146e+01       4.820e-01          -0.805          -0.394          -0.444       1.291e-02          0.7018
 104       5.344e+00      -1.146e+01       5.186e-01          -0.805          -0.354           0.477       1.280e-02          0.2122
 105       5.386e+00      -1.146e+01       5.496e-01          -0.377          -0.139           0.916       1.916e-02         -0.7728
 106       5.466e+00      -1.146e+01       5.715e-01          -0.180          -0.048           0.983       2.849e-02         -0.6293
 107       5.581e+00      -1.146e+01       5.869e-01          -0.097          -0.011           0.995       3.700e-02         -0.5078
 108       5.723e+00      -1.146e+01       5.966e-01          -0.044           0.011           0.999       4.357e-02         -0.4465
 109       5.884e+00      -1.146e+01       6.003e-01          -0.003           0.027           1.000       4.771e-02         -0.4077
 110       6.056e+00      -1.146e+01       5.974e-01           0.036           0.041           0.999       4.917e-02         -0.3839
 111       6.228e+00      -1.146e+01       5.876e-01           0.079           0.056           0.995       4.787e-02         -0.3630
 112       6.389e+00      -1.146e+01       5.706e-01           0.132           0.072           0.989       4.393e-02         -0.3221
 113       6.531e+00      -1.146e+01       5.478e-01           0.190           0.088           0.978       3.753e-02         -0.2518
 114       6.646e+00      -1.146e+01       5.228e-01           0.243           0.102           0.965       2.886e-02         -0.1491
 115       6.726e+00      -1.146e+01       5.013e-01           0.281           0.111           0.953       1.823e-02         -0.0623
 116       6.768e+00      -1.146e+01       4.867e-01           0.465           0.152           0.872       6.758e-03          0.1214
Strip 5
 117       6.690e+00      -1.114e+01       4.669e-01          -0.063          -0.062          -0.996       7.950e-03          0.1327
 118       6.647e+00      -1.114e+01       4.740e-01          -0.196          -0.093          -0.976       2.383e-02          0.3054
 119       6.562e+00      -1.114e+01       4.826e-01          -0.039          -0.054          -0.998       3.741e-02          0.4009
 120       6.442e+00      -1.114e+01       4.761e-01           0.123          -0.011          -0.992       4.964e-02          0.3505
 121       6.293e+00      -1.114e+01       4.504e-01           0.209           0.015          -0.978       5.967e-02          0.1939
 122       6.123e+00      -1.114e+01       4.163e-01           0.185           0.007          -0.983       6.510e-02         -0.0378
 123       5.943e+00      -1.114e+01       3.915e-01           0.089          -0.026          -0.996       6.611e-02         -0.2049
 124       5.763e+00      -1.114e+01       3.824e-01           0.010          -0.055          -0.998       6.395e-02         -0.2382
 125       5.593e+00      -1.114e+01       3.851e-01          -0.045          -0.077          -0.996       5.841e-02         -0.2217
 126       5.444e+00      -1.114e+01       3.956e-01          -0.099          -0.099          -0.990       4.963e-02         -0.1979
 127       5.323e+00      -1.114e+01       4.118e-01          -0.177          -0.132          -0.975       3.819e-02         -0.1771
 128       5.239e+00      -1.114e+01       4.345e-01          -0.374          -0.217          -0.902       2.568e-02         -0.0336
 129       5.196e+00      -1.114e+01       4.671e-01          -0.804          -0.394          -0.445       1.728e-02          0.7184
 130       5.196e+00      -1.114e+01       5.055e-01          -0.805          -0.354           0.476       1.712e-02          0.1914
 131       5.239e+00      -1.114e+01       5.381e-01          -0.377          -0.139           0.916       2.562e-02         -0.8067
 132       5.323e+00      -1.114e+01       5.610e-01          -0.180          -0.048           0.983       3.810e-02         -0.6555
 133       5.444e+00      -1.114e+01       5.772e-01          -0.097          -0.011           0.995       4.950e-02         -0.5334
 134       5.593e+00      -1.114e+01       5.874e-01          -0.044           0.011           0.999       5.828e-02         -0.4756
 135       5.763e+00      -1.114e+01       5.913e-01          -0.003           0.027           1.000       6.382e-02         -0.4404
 136       5.943e+00      -1.114e+01       5.882e-01           0.036           0.041           0.999       6.578e-02         -0.4179
 137       6.123e+00      -1.114e+01       5.779e-01           0.079           0.056           0.995       6.404e-02         -0.3951
 138       6.293e+00      -1.114e+01       5.602e-01           0.132           0.072           0.989       5.877e-02         -0.3488
 139       6.442e+00      -1.114e+01       5.362e-01           0.190           0.088           0.978       5.021e-02         -0.2704
 140       6.562e+00      -1.114e+01       5.099e-01           0.243           0.102           0.965       3.862e-02         -0.1592
 141       6.647e+00      -1.114e+01       4.873e-01           0.281           0.111           0.953       2.439e-02         -0.0648
 142       6.690e+00      -1.114e+01       4.720e-01           0.465           0.152           0.872       9.043e-03          0.1213
Strip 6
 143       6.594e+00      -1.074e+01       4.484e-01          -0.063          -0.062          -0.996       1.017e-02          0.1332
 144       6.548e+00      -1.074e+01       4.560e-01          -0.196          -0.093          -0.976       3.050e-02          0.3072
 145       6.459e+00      -1.074e+01       4.650e-01          -0.039          -0.054          -0.998       4.787e-02          0.4038
 146       6.331e+00      -1.074e+01       4.582e-01           0.123          -0.011          -0.992       6.350e-02          0.3537
 147       6.173e+00      -1.074e+01       4.309e-01           0.209           0.015          -0.978       7.632e-02          0.1970
 148       5.993e+00      -1.075e+01       3.949e-01           0.185           0.007          -0.983       8.328e-02         -0.0344
 149       5.803e+00      -1.075e+01       3.685e-01           0.089          -0.026          -0.996       8.457e-02         -0.2007
 150       5.612e+00      -1.075e+01       3.589e-01           0.010          -0.055          -0.998       8.182e-02         -0.2325
 151       5.432e+00      -1.075e+01       3.618e-01          -0.045          -0.077          -0.996       7.474e-02         -0.2141
 152       5.274e+00      -1.075e+01       3.729e-01          -0.099          -0.099          -0.990       6.350e-02         -0.1884
 153       5.147e+00      -1.075e+01       3.901e-01          -0.177          -0.132          -0.975       4.887e-02         -0.1652
 154       5.057e+00      -1.075e+01       4.141e-01          -0.373          -0.217          -0.902       3.287e-02         -0.0166
 155       5.011e+00      -1.074e+01       4.486e-01          -0.804          -0.393          -0.446       2.212e-02          0.7272
 156       5.011e+00      -1.074e+01       4.893e-01          -0.805          -0.354           0.475       2.189e-02          0.1759
 157       5.057e+00      -1.074e+01       5.238e-01          -0.377          -0.140           0.916       3.277e-02         -0.8305
 158       5.147e+00      -1.074e+01       5.481e-01          -0.180          -0.048           0.983       4.874e-02         -0.6729
 159       5.274e+00      -1.074e+01       5.652e-01          -0.097          -0.011           0.995       6.332e-02         -0.5492
 160       5.432e+00      -1.074e+01       5.761e-01          -0.044           0.011           0.999       7.456e-02         -0.4922
 161       5.612e+00      -1.074e+01       5.801e-01          -0.003           0.027           1.000       8.166e-02         -0.4587
 162       5.803e+00      -1.074e+01       5.769e-01           0.036           0.041           0.999       8.416e-02         -0.4372
 163       5.993e+00      -1.074e+01       5.660e-01           0.079           0.056           0.995       8.194e-02         -0.4138
 164       6.173e+00      -1.074e+01       5.472e-01           0.132           0.072           0.989       7.520e-02         -0.3650
 165       6.331e+00      -1.074e+01       5.218e-01           0.190           0.088           0.978       6.425e-02         -0.2826
 166       6.459e+00      -1.074e+01       4.939e-01           0.243           0.102           0.965       4.942e-02         -0.1670
 167       6.548e+00      -1.074e+01       4.701e-01           0.281           0.111           0.953       3.121e-02         -0.0690
 168       6.594e+00      -1.074e+01       4.538e-01           0.465           0.152           0.872       1.157e-02          0.1182
Strip 7
 169       6.480e+00      -1.027e+01       4.265e-01          -0.063          -0.062          -0.996       1.264e-02          0.1332
 170       6.431e+00      -1.027e+01       4.346e-01          -0.196          -0.093          -0.976       3.790e-02          0.3080
 171       6.336e+00      -1.027e+01       4.442e-01          -0.039          -0.054          -0.998       5.947e-02          0.4053
 172       6.200e+00      -1.027e+01       4.369e-01           0.123          -0.011          -0.992       7.889e-02          0.3556
 173       6.032e+00      -1.027e+01       4.079e-01           0.209           0.015          -0.978       9.480e-02          0.1993
 174       5.840e+00      -1.028e+01       3.694e-01           0.185           0.007          -0.983       1.034e-01         -0.0317
 175       5.637e+00      -1.028e+01       3.413e-01           0.089          -0.026          -0.996       1.051e-01         -0.1972
 176       5.433e+00      -1.028e+01       3.311e-01           0.010          -0.055          -0.998       1.017e-01         -0.2281
 177       5.242e+00      -1.028e+01       3.342e-01          -0.045          -0.077          -0.996       9.286e-02         -0.2090
 178       5.073e+00      -1.028e+01       3.460e-01          -0.099          -0.099          -0.990       7.891e-02         -0.1829
 179       4.937e+00      -1.028e+01       3.643e-01          -0.177          -0.132          -0.975       6.073e-02         -0.1586
 180       4.842e+00      -1.027e+01       3.899e-01          -0.373          -0.217          -0.902       4.086e-02         -0.0077
 181       4.793e+00      -1.027e+01       4.267e-01          -0.803          -0.393          -0.447       2.749e-02          0.7313
 182       4.793e+00      -1.027e+01       4.701e-01          -0.806          -0.354           0.474       2.718e-02          0.1677
 183       4.842e+00      -1.027e+01       5.069e-01          -0.377          -0.140           0.915       4.069e-02         -0.8440
 184       4.937e+00      -1.027e+01       5.328e-01          -0.180          -0.048           0.983       6.054e-02         -0.6829
 185       5.073e+00      -1.027e+01       5.511e-01          -0.097          -0.011           0.995       7.865e-02         -0.5581
 186       5.242e+00      -1.027e+01       5.626e-01          -0.044           0.011           0.999       9.263e-02         -0.5012
 187       5.433e+00      -1.027e+01       5.669e-01          -0.003           0.027           1.000       1.015e-01         -0.4684
 188       5.637e+00      -1.027e+01       5.635e-01           0.036           0.041           0.999       1.046e-01         -0.4475
 189       5.840e+00      -1.027e+01       5.519e-01           0.079           0.056           0.995       1.018e-01         -0.4239
 190       6.032e+00      -1.027e+01       5.318e-01           0.132           0.072           0.989       9.344e-02         -0.3738
 191       6.200e+00      -1.027e+01       5.047e-01           0.190           0.088           0.978       7.984e-02         -0.2894
 192       6.336e+00      -1.027e+01       4.750e-01           0.243           0.102           0.965       6.141e-02         -0.1718
 193       6.431e+00      -1.027e+01       4.496e-01           0.281           0.111           0.953       3.878e-02         -0.0719
 194       6.480e+00      -1.027e+01       4.323e-01           0.464           0.152           0.872       1.438e-02          0.1158
Strip 8
 195       6.349e+00      -9.733e+00       4.013e-01          -0.063          -0.062          -0.996       1.537e-02          0.1330
 196       6.297e+00      -9.733e+00       4.100e-01          -0.196          -0.093          -0.976       4.609e-02          0.3084
 197       6.195e+00      -9.732e+00       4.203e-01          -0.039          -0.054          -0.998       7.231e-02          0.4063
 198       6.050e+00      -9.733e+00       4.125e-01           0.123          -0.011          -0.992       9.590e-02          0.3568
 199       5.869e+00      -9.733e+00       3.814e-01           0.209           0.015          -0.978       1.152e-01          0.2007
 200       5.664e+00      -9.734e+00       3.402e-01           0.185           0.007          -0.983       1.258e-01         -0.0300
 201       5.446e+00      -9.735e+00       3.101e-01           0.089          -0.026          -0.996       1.277e-01         -0.1951
 202       5.228e+00      -9.736e+00       2.991e-01           0.010          -0.055          -0.998       1.236e-01         -0.2259
 203       5.023e+00      -9.735e+00       3.024e-01          -0.045          -0.077          -0.996       1.129e-01         -0.2067
 204       4.843e+00      -9.735e+00       3.151e-01          -0.099          -0.099          -0.990       9.595e-02         -0.1806
 205       4.697e+00      -9.735e+00       3.347e-01          -0.177          -0.132          -0.975       7.386e-02         -0.1563
 206       4.595e+00      -9.734e+00       3.622e-01          -0.373          -0.217          -0.902       4.970e-02         -0.0051
 207       4.543e+00      -9.733e+00       4.016e-01          -0.803          -0.393          -0.448       3.345e-02          0.7322
 208       4.543e+00      -9.732e+00       4.481e-01          -0.806          -0.355           0.473       3.303e-02          0.1665
 209       4.595e+00      -9.731e+00       4.874e-01          -0.378          -0.140           0.915       4.944e-02         -0.8483
 210       4.697e+00      -9.730e+00       5.152e-01          -0.180          -0.048           0.983       7.359e-02         -0.6865
 211       4.843e+00      -9.729e+00       5.348e-01          -0.097          -0.011           0.995       9.562e-02         -0.5618
 212       5.023e+00      -9.729e+00       5.472e-01          -0.044           0.011           0.999       1.126e-01         -0.5054
 213       5.228e+00      -9.729e+00       5.518e-01          -0.003           0.027           1.000       1.234e-01         -0.4731
 214       5.446e+00      -9.729e+00       5.481e-01           0.036           0.041           0.999       1.271e-01         -0.4524
 215       5.664e+00      -9.729e+00       5.357e-01           0.079           0.056           0.995       1.238e-01         -0.4288
 216       5.869e+00      -9.730e+00       5.141e-01           0.132           0.072           0.989       1.136e-01         -0.3782
 217       6.050e+00      -9.731e+00       4.851e-01           0.190           0.088           0.978       9.709e-02         -0.2929
 218       6.195e+00      -9.732e+00       4.533e-01           0.243           0.102           0.965       7.468e-02         -0.1743
 219       6.297e+00      -9.732e+00       4.261e-01           0.280           0.111           0.953       4.716e-02         -0.0736
 220       6.349e+00      -9.733e+00       4.075e-01           0.464           0.152           0.872       1.749e-02          0.1143
Strip 9
 221       6.203e+00      -9.126e+00       3.730e-01          -0.063          -0.062          -0.996       1.837e-02          0.1331
 222       6.146e+00      -9.126e+00       3.823e-01          -0.196          -0.093          -0.976       5.509e-02          0.3086
 223       6.037e+00      -9.125e+00       3.934e-01          -0.039          -0.054          -0.998       8.643e-02          0.4068
 224       5.880e+00      -9.126e+00       3.851e-01           0.123          -0.011          -0.992       1.146e-01          0.3576
 225       5.686e+00      -9.126e+00       3.516e-01           0.209           0.015          -0.978       1.377e-01          0.2015
 226       5.466e+00      -9.127e+00       3.074e-01           0.185           0.007          -0.983       1.503e-01         -0.0293
 227       5.232e+00      -9.128e+00       2.750e-01           0.089          -0.026          -0.996       1.526e-01         -0.1945
 228       4.998e+00      -9.128e+00       2.632e-01           0.010          -0.055          -0.998       1.477e-01         -0.2253
 229       4.777e+00      -9.128e+00       2.668e-01          -0.045          -0.077          -0.996       1.350e-01         -0.2064
 230       4.583e+00      -9.128e+00       2.804e-01          -0.099          -0.099          -0.990       1.147e-01         -0.1808
 231       4.427e+00      -9.127e+00       3.014e-01          -0.177          -0.132          -0.975       8.830e-02         -0.1574
 232       4.317e+00      -9.127e+00       3.310e-01          -0.373          -0.217          -0.902       5.943e-02         -0.0074
 233       4.261e+00      -9.126e+00       3.733e-01          -0.802          -0.393          -0.449       4.000e-02          0.7308
 234       4.261e+00      -9.125e+00       4.233e-01          -0.807          -0.355           0.472       3.945e-02          0.1712
 235       4.317e+00      -9.124e+00       4.656e-01          -0.378          -0.140           0.915       5.906e-02         -0.8451
 236       4.427e+00      -9.123e+00       4.954e-01          -0.180          -0.048           0.983       8.793e-02         -0.6855
 237       4.583e+00      -9.123e+00       5.165e-01          -0.097          -0.011           0.995       1.143e-01         -0.5619
 238       4.777e+00      -9.122e+00       5.298e-01          -0.044           0.011           0.999       1.346e-01         -0.5063
 239       4.998e+00      -9.122e+00       5.347e-01          -0.003           0.027           1.000       1.474e-01         -0.4745
 240       5.232e+00      -9.122e+00       5.308e-01           0.036           0.041           0.999       1.520e-01         -0.4542
 241       5.466e+00      -9.123e+00       5.174e-01           0.079           0.056           0.995       1.480e-01         -0.4307
 242       5.686e+00      -9.123e+00       4.943e-01           0.132           0.072           0.989       1.358e-01         -0.3799
 243       5.880e+00      -9.124e+00       4.631e-01           0.190           0.088           0.978       1.161e-01         -0.2943
 244       6.037e+00      -9.125e+00       4.289e-01           0.243           0.102           0.965       8.928e-02         -0.1755
 245       6.146e+00      -9.125e+00       3.996e-01           0.280           0.111           0.953       5.638e-02         -0.0744
 246       6.203e+00      -9.126e+00       3.797e-01           0.464           0.152           0.873       2.091e-02          0.1136
Strip 10
 247       6.041e+00      -8.456e+00       3.418e-01          -0.063          -0.062          -0.996       2.163e-02          0.1329
 248       5.980e+00      -8.456e+00       3.519e-01          -0.196          -0.093          -0.976       6.489e-02          0.3087
 249       5.862e+00      -8.456e+00       3.638e-01          -0.039          -0.054          -0.998       1.018e-01          0.4071
 250       5.694e+00      -8.456e+00       3.548e-01           0.123          -0.011          -0.992       1.350e-01          0.3579
 251       5.485e+00      -8.457e+00       3.188e-01           0.209           0.015          -0.978       1.622e-01          0.2017
 252       5.248e+00      -8.458e+00       2.712e-01           0.185           0.007          -0.983       1.769e-01         -0.0294
 253       4.996e+00      -8.458e+00       2.363e-01           0.089          -0.026          -0.996       1.798e-01         -0.1950
 254       4.744e+00      -8.459e+00       2.236e-01           0.010          -0.055          -0.998       1.740e-01         -0.2262
 255       4.506e+00      -8.459e+00       2.274e-01          -0.045          -0.077          -0.996       1.590e-01         -0.2078
 256       4.298e+00      -8.458e+00       2.421e-01          -0.099          -0.099          -0.990       1.351e-01         -0.1831
 257       4.129e+00      -8.458e+00       2.648e-01          -0.177          -0.132          -0.975       1.040e-01         -0.1612
 258       4.011e+00      -8.457e+00       2.966e-01          -0.373          -0.217          -0.902       7.003e-02         -0.0140
 259       3.951e+00      -8.456e+00       3.422e-01          -0.802          -0.393          -0.450       4.714e-02          0.7274
 260       3.951e+00      -8.455e+00       3.960e-01          -0.807          -0.355           0.471       4.644e-02          0.1806
 261       4.011e+00      -8.454e+00       4.415e-01          -0.378          -0.140           0.915       6.953e-02         -0.8363
 262       4.129e+00      -8.454e+00       4.736e-01          -0.180          -0.048           0.982       1.035e-01         -0.6808
 263       4.298e+00      -8.453e+00       4.963e-01          -0.097          -0.011           0.995       1.346e-01         -0.5593
 264       4.506e+00      -8.453e+00       5.106e-01          -0.044           0.011           0.999       1.585e-01         -0.5047
 265       4.744e+00      -8.453e+00       5.160e-01          -0.003           0.027           1.000       1.736e-01         -0.4738
 266       4.996e+00      -8.453e+00       5.117e-01           0.036           0.041           0.999       1.790e-01         -0.4540
 267       5.248e+00      -8.453e+00       4.973e-01           0.079           0.056           0.995       1.743e-01         -0.4308
 268       5.485e+00      -8.454e+00       4.724e-01           0.132           0.072           0.989       1.600e-01         -0.3802
 269       5.694e+00      -8.455e+00       4.388e-01           0.190           0.088           0.978       1.367e-01         -0.2947
 270       5.862e+00      -8.455e+00       4.021e-01           0.243           0.102           0.965       1.052e-01         -0.1758
 271       5.980e+00      -8.456e+00       3.705e-01           0.280           0.111           0.953       6.641e-02         -0.0747
 272       6.041e+00      -8.456e+00       3.490e-01           0.464           0.152           0.873       2.464e-02          0.1131
Strip 11
 273       5.865e+00      -7.729e+00       3.080e-01          -0.063          -0.062          -0.996       2.515e-02          0.1328
 274       5.800e+00      -7.729e+00       3.188e-01          -0.196          -0.093          -0.976       7.545e-02          0.3087
 275       5.672e+00      -7.729e+00       3.316e-01          -0.039          -0.054          -0.998       1.183e-01          0.4072
 276       5.491e+00      -7.729e+00       3.220e-01           0.123          -0.011          -0.992       1.569e-01          0.3580
 277       5.266e+00      -7.730e+00       2.832e-01           0.209           0.015          -0.978       1.885e-01          0.2016
 278       5.011e+00      -7.730e+00       2.318e-01           0.185           0.007          -0.983       2.057e-01         -0.0301
 279       4.739e+00      -7.731e+00       1.943e-01           0.089          -0.026          -0.996       2.089e-01         -0.1963
 280       4.468e+00      -7.731e+00       1.806e-01           0.010          -0.055          -0.998       2.022e-01         -0.2281
 281       4.212e+00      -7.731e+00       1.847e-01          -0.045          -0.077          -0.996       1.848e-01         -0.2104
 282       3.987e+00      -7.731e+00       2.005e-01          -0.099          -0.099          -0.990       1.571e-01         -0.1868
 283       3.806e+00      -7.731e+00       2.250e-01          -0.177          -0.132          -0.975       1.210e-01         -0.1670
 284       3.679e+00      -7.730e+00       2.592e-01          -0.372          -0.217          -0.902       8.145e-02         -0.0236
 285       3.613e+00      -7.729e+00       3.084e-01          -0.802          -0.393          -0.451       5.482e-02          0.7226
 286       3.613e+00      -7.728e+00       3.663e-01          -0.808          -0.355           0.470       5.396e-02          0.1937
 287       3.679e+00      -7.727e+00       4.154e-01          -0.378          -0.140           0.915       8.079e-02         -0.8227
 288       3.806e+00      -7.727e+00       4.499e-01          -0.180          -0.048           0.982       1.203e-01         -0.6730
 289       3.987e+00      -7.726e+00       4.744e-01          -0.097          -0.011           0.995       1.564e-01         -0.5544
 290       4.212e+00      -7.726e+00       4.898e-01          -0.044           0.011           0.999       1.843e-01         -0.5014
 291       4.468e+00      -7.726e+00       4.956e-01          -0.003           0.027           1.000       2.018e-01         -0.4715
 292       4.739e+00      -7.726e+00       4.910e-01           0.036           0.041           0.999       2.081e-01         -0.4524
 293       5.011e+00      -7.726e+00       4.755e-01           0.079           0.056           0.995       2.026e-01         -0.4297
 294       5.266e+00      -7.727e+00       4.487e-01           0.132           0.072           0.989       1.860e-01         -0.3795
 295       5.491e+00      -7.727e+00       4.125e-01           0.190           0.088           0.978       1.589e-01         -0.2943
 296       5.672e+00      -7.728e+00       3.729e-01           0.243           0.102           0.965       1.223e-01         -0.1756
 297       5.800e+00      -7.729e+00       3.389e-01           0.280           0.111           0.953       7.722e-02         -0.0747
 298       5.865e+00      -7.729e+00       3.157e-01           0.464           0.152           0.873       2.865e-02          0.1127
Strip 12
 299       5.676e+00      -6.949e+00       2.717e-01          -0.063          -0.062          -0.996       2.889e-02          0.1326
 300       5.606e+00      -6.949e+00       2.833e-01          -0.196          -0.093          -0.976       8.666e-02          0.3086
 301       5.469e+00      -6.949e+00       2.971e-01          -0.039          -0.054          -0.998       1.359e-01          0.4072
 302       5.274e+00      -6.949e+00       2.867e-01           0.123          -0.011          -0.992       1.802e-01          0.3579
 303       5.032e+00      -6.950e+00       2.449e-01           0.209           0.015          -0.978       2.164e-01          0.2011
 304       4.756e+00      -6.950e+00       1.896e-01           0.185           0.007          -0.983       2.362e-01         -0.0313
 305       4.464e+00      -6.951e+00       1.492e-01           0.089          -0.026          -0.996       2.400e-01         -0.1983
 306       4.172e+00      -6.951e+00       1.345e-01           0.010          -0.055          -0.998       2.323e-01         -0.2308
 307       3.896e+00      -6.951e+00       1.389e-01          -0.045          -0.077          -0.996       2.123e-01         -0.2140
 308       3.654e+00      -6.951e+00       1.559e-01          -0.099          -0.099          -0.990       1.804e-01         -0.1917
 309       3.459e+00      -6.950e+00       1.822e-01          -0.177          -0.132          -0.975       1.389e-01         -0.1745
 310       3.322e+00      -6.950e+00       2.191e-01          -0.372          -0.217          -0.903       9.358e-02         -0.0359
 311       3.252e+00      -6.949e+00       2.721e-01          -0.801          -0.393          -0.452       6.299e-02          0.7164
 312       3.252e+00      -6.948e+00       3.345e-01          -0.808          -0.356           0.470       6.195e-02          0.2099
 313       3.322e+00      -6.948e+00       3.873e-01          -0.378          -0.140           0.915       9.275e-02         -0.8047
 314       3.459e+00      -6.947e+00       4.246e-01          -0.180          -0.048           0.982       1.382e-01         -0.6630
 315       3.654e+00      -6.947e+00       4.508e-01          -0.097          -0.011           0.995       1.796e-01         -0.5479
 316       3.896e+00      -6.946e+00       4.675e-01          -0.044           0.011           0.999       2.116e-01         -0.4968
 317       4.172e+00      -6.946e+00       4.737e-01          -0.003           0.027           1.000       2.318e-01         -0.4681
 318       4.464e+00      -6.946e+00       4.688e-01           0.036           0.041           0.999       2.390e-01         -0.4498
 319       4.756e+00      -6.947e+00       4.521e-01           0.079           0.056           0.995       2.327e-01         -0.4278
 320       5.032e+00      -6.947e+00       4.232e-01           0.132           0.072           0.989       2.137e-01         -0.3781
 321       5.274e+00      -6.948e+00       3.842e-01           0.189           0.088           0.978       1.826e-01         -0.2933
 322       5.469e+00      -6.948e+00       3.415e-01           0.243           0.102           0.965       1.405e-01         -0.1751
 323       5.606e+00      -6.949e+00       3.049e-01           0.280           0.111           0.953       8.870e-02         -0.0745
 324       5.676e+00      -6.949e+00       2.800e-01           0.464           0.152           0.873       3.292e-02          0.1126
Strip 13
 325       5.476e+00      -6.122e+00       2.331e-01          -0.063          -0.062          -0.996       3.280e-02          0.1324
 326       5.400e+00      -6.122e+00       2.457e-01          -0.196          -0.093          -0.976       9.842e-02          0.3084
 327       5.253e+00      -6.121e+00       2.605e-01          -0.039          -0.054          -0.998       1.543e-01          0.4070
 328       5.043e+00      -6.122e+00       2.494e-01           0.123          -0.011          -0.992       2.046e-01          0.3577
 329       4.783e+00      -6.122e+00       2.044e-01           0.209           0.015          -0.978       2.457e-01          0.2004
 330       4.486e+00      -6.123e+00       1.449e-01           0.185           0.007          -0.983       2.681e-01         -0.0329
 331       4.172e+00      -6.123e+00       1.014e-01           0.089          -0.026          -0.996       2.724e-01         -0.2010
 332       3.858e+00      -6.123e+00       8.556e-02           0.010          -0.055          -0.998       2.637e-01         -0.2343
 333       3.562e+00      -6.123e+00       9.031e-02          -0.045          -0.077          -0.996       2.410e-01         -0.2185
 334       3.301e+00      -6.123e+00       1.086e-01          -0.099          -0.099          -0.990       2.049e-01         -0.1978
 335       3.091e+00      -6.123e+00       1.369e-01          -0.177          -0.132          -0.975       1.578e-01         -0.1835
 336       2.944e+00      -6.122e+00       1.766e-01          -0.372          -0.217          -0.903       1.063e-01         -0.0506
 337       2.868e+00      -6.122e+00       2.336e-01          -0.801          -0.392          -0.453       7.156e-02          0.7088
 338       2.868e+00      -6.121e+00       3.007e-01          -0.808          -0.356           0.469       7.031e-02          0.2287
 339       2.944e+00      -6.120e+00       3.576e-01          -0.378          -0.140           0.915       1.053e-01         -0.7834
 340       3.091e+00      -6.120e+00       3.976e-01          -0.180          -0.048           0.982       1.569e-01         -0.6507
 341       3.301e+00      -6.120e+00       4.259e-01          -0.097          -0.012           0.995       2.039e-01         -0.5398
 342       3.562e+00      -6.119e+00       4.438e-01          -0.044           0.011           0.999       2.403e-01         -0.4910
 343       3.858e+00      -6.119e+00       4.505e-01          -0.003           0.027           1.000       2.632e-01         -0.4637
 344       4.172e+00      -6.119e+00       4.452e-01           0.036           0.041           0.999       2.714e-01         -0.4465
 345       4.486e+00      -6.120e+00       4.272e-01           0.079           0.056           0.995       2.643e-01         -0.4253
 346       4.783e+00      -6.120e+00       3.961e-01           0.132           0.072           0.989       2.426e-01         -0.3763
 347       5.043e+00      -6.120e+00       3.542e-01           0.189           0.088           0.978       2.073e-01         -0.2921
 348       5.253e+00      -6.121e+00       3.083e-01           0.243           0.102           0.965       1.595e-01         -0.1744
 349       5.400e+00      -6.121e+00       2.689e-01           0.280           0.111           0.953       1.007e-01         -0.0742
 350       5.476e+00      -6.122e+00       2.421e-01           0.464           0.152           0.873       3.738e-02          0.1124
Strip 14
 351       5.266e+00      -5.252e+00       1.926e-01          -0.063          -0.062          -0.996       3.684e-02          0.1320
 352       5.185e+00      -5.252e+00       2.061e-01          -0.196          -0.093          -0.976       1.105e-01          0.3081
 353       5.027e+00      -5.252e+00       2.221e-01          -0.039          -0.054          -0.998       1.733e-01          0.4068
 354       4.801e+00      -5.252e+00       2.101e-01           0.123          -0.011          -0.992       2.297e-01          0.3573
 355       4.521e+00      -5.253e+00       1.618e-01           0.209           0.015          -0.978       2.759e-01          0.1995
 356       4.203e+00      -5.253e+00       9.787e-02           0.186           0.007          -0.983       3.011e-01         -0.0349
 357       3.865e+00      -5.254e+00       5.118e-02           0.089          -0.026          -0.996       3.060e-01         -0.2041
 358       3.528e+00      -5.254e+00       3.415e-02           0.010          -0.055          -0.998       2.962e-01         -0.2384
 359       3.210e+00      -5.254e+00       3.926e-02          -0.045          -0.077          -0.996       2.707e-01         -0.2238
 360       2.930e+00      -5.254e+00       5.889e-02          -0.099          -0.099          -0.990       2.301e-01         -0.2048
 361       2.704e+00      -5.253e+00       8.932e-02          -0.177          -0.132          -0.975       1.773e-01         -0.1939
 362       2.546e+00      -5.253e+00       1.319e-01          -0.372          -0.216          -0.903       1.194e-01         -0.0676
 363       2.465e+00      -5.252e+00       1.931e-01          -0.800          -0.392          -0.453       8.040e-02          0.6998
 364       2.465e+00      -5.252e+00       2.652e-01          -0.809          -0.356           0.468       7.894e-02          0.2499
 365       2.546e+00      -5.251e+00       3.263e-01          -0.379          -0.140           0.915       1.182e-01         -0.7584
 366       2.704e+00      -5.251e+00       3.693e-01          -0.180          -0.048           0.982       1.761e-01         -0.6362
 367       2.930e+00      -5.251e+00       3.997e-01          -0.097          -0.012           0.995       2.290e-01         -0.5303
 368       3.210e+00      -5.250e+00       4.189e-01          -0.044           0.011           0.999       2.698e-01         -0.4840
 369       3.528e+00      -5.250e+00       4.261e-01          -0.003           0.027           1.000       2.956e-01         -0.4584
 370       3.865e+00      -5.250e+00       4.204e-01           0.036           0.041           0.999       3.048e-01         -0.4425
 371       4.203e+00      -5.251e+00       4.011e-01           0.079           0.056           0.995       2.969e-01         -0.4222
 372       4.521e+00      -5.251e+00       3.677e-01           0.132           0.072           0.989       2.725e-01         -0.3740
 373       4.801e+00      -5.251e+00       3.227e-01           0.189           0.088           0.978       2.329e-01         -0.2906
 374       5.027e+00      -5.252e+00       2.734e-01           0.243           0.102           0.965       1.792e-01         -0.1736
 375       5.185e+00      -5.252e+00       2.311e-01           0.280           0.111           0.954       1.132e-01         -0.0741
 376       5.266e+00      -5.252e+00       2.023e-01           0.464           0.152           0.873       4.200e-02          0.1120
Strip 15
 377       5.047e+00      -4.347e+00       1.505e-01          -0.063          -0.062          -0.996       4.094e-02          0.1315
 378       4.960e+00      -4.347e+00       1.649e-01          -0.196          -0.093          -0.976       1.229e-01          0.3077
 379       4.790e+00      -4.347e+00       1.821e-01          -0.039          -0.054          -0.998       1.926e-01          0.4063
 380       4.549e+00      -4.347e+00       1.692e-01           0.123          -0.011          -0.992       2.553e-01          0.3566
 381       4.249e+00      -4.347e+00       1.174e-01           0.209           0.015          -0.978       3.066e-01          0.1982
 382       3.908e+00      -4.348e+00       4.891e-02           0.186           0.007          -0.983       3.346e-01         -0.0373
 383       3.546e+00      -4.348e+00      -1.130e-03           0.089          -0.026          -0.996       3.400e-01         -0.2077
 384       3.184e+00      -4.348e+00      -1.938e-02           0.010          -0.055          -0.998       3.292e-01         -0.2431
 385       2.843e+00      -4.348e+00      -1.391e-02          -0.045          -0.077          -0.996       3.009e-01         -0.2297
 386       2.543e+00      -4.348e+00       7.138e-03          -0.099          -0.099          -0.990       2.558e-01         -0.2127
 387       2.302e+00      -4.348e+00       3.975e-02          -0.177          -0.132          -0.975       1.970e-01         -0.2056
 388       2.132e+00      -4.348e+00       8.544e-02          -0.372          -0.216          -0.903       1.328e-01         -0.0870
 389       2.045e+00      -4.347e+00       1.510e-01          -0.800          -0.392          -0.454       8.938e-02          0.6892
 390       2.045e+00      -4.347e+00       2.283e-01          -0.809          -0.356           0.468       8.770e-02          0.2734
 391       2.132e+00      -4.346e+00       2.937e-01          -0.379          -0.140           0.915       1.313e-01         -0.7298
 392       2.302e+00      -4.346e+00       3.399e-01          -0.180          -0.048           0.982       1.957e-01         -0.6194
 393       2.543e+00      -4.346e+00       3.724e-01          -0.097          -0.012           0.995       2.545e-01         -0.5191
 394       2.843e+00      -4.346e+00       3.930e-01          -0.044           0.011           0.999       2.999e-01         -0.4759
 395       3.184e+00      -4.346e+00       4.007e-01          -0.003           0.027           1.000       3.285e-01         -0.4523
 396       3.546e+00      -4.346e+00       3.946e-01           0.036           0.041           0.999       3.387e-01         -0.4377
 397       3.908e+00      -4.346e+00       3.739e-01           0.079           0.056           0.995       3.299e-01         -0.4187
 398       4.249e+00      -4.346e+00       3.381e-01           0.132           0.072           0.989       3.029e-01         -0.3716
 399       4.549e+00      -4.346e+00       2.899e-01           0.189           0.088           0.978       2.589e-01         -0.2891
 400       4.790e+00      -4.347e+00       2.370e-01           0.243           0.102           0.965       1.992e-01         -0.1729
 401       4.960e+00      -4.347e+00       1.917e-01           0.280           0.111           0.954       1.258e-01         -0.0739
 402       5.047e+00      -4.347e+00       1.608e-01           0.463           0.152           0.873       4.668e-02          0.1116
Strip 16
 403       4.821e+00      -3.412e+00       1.070e-01          -0.063          -0.062          -0.996       4.503e-02          0.1306
 404       4.728e+00      -3.412e+00       1.224e-01          -0.196          -0.093          -0.976       1.351e-01          0.3070
 405       4.547e+00      -3.412e+00       1.407e-01          -0.039          -0.054          -0.998       2.119e-01          0.4057
 406       4.288e+00      -3.412e+00       1.269e-01           0.123          -0.011          -0.992       2.808e-01          0.3558
 407       3.968e+00      -3.413e+00       7.156e-02           0.209           0.015          -0.978       3.372e-01          0.1966
 408       3.603e+00      -3.413e+00      -1.648e-03           0.186           0.007          -0.983       3.679e-01         -0.0403
 409       3.216e+00      -3.413e+00      -5.515e-02           0.089          -0.026          -0.996       3.739e-01         -0.2122
 410       2.829e+00      -3.413e+00      -7.467e-02           0.010          -0.055          -0.998       3.620e-01         -0.2486
 411       2.465e+00      -3.413e+00      -6.881e-02          -0.045          -0.077          -0.996       3.309e-01         -0.2363
 412       2.144e+00      -3.413e+00      -4.631e-02          -0.099          -0.099          -0.990       2.814e-01         -0.2211
 413       1.886e+00      -3.413e+00      -1.144e-02          -0.177          -0.132          -0.975       2.167e-01         -0.2183
 414       1.705e+00      -3.413e+00       3.740e-02          -0.372          -0.216          -0.903       1.461e-01         -0.1085
 415       1.612e+00      -3.412e+00       1.075e-01          -0.800          -0.392          -0.454       9.834e-02          0.6768
 416       1.612e+00      -3.412e+00       1.901e-01          -0.809          -0.356           0.467       9.643e-02          0.2997
 417       1.705e+00      -3.412e+00       2.601e-01          -0.379          -0.140           0.915       1.444e-01         -0.6963
 418       1.886e+00      -3.411e+00       3.094e-01          -0.180          -0.048           0.982       2.152e-01         -0.5992
 419       2.144e+00      -3.411e+00       3.442e-01          -0.097          -0.012           0.995       2.799e-01         -0.5056
 420       2.465e+00      -3.411e+00       3.663e-01          -0.044           0.011           0.999       3.298e-01         -0.4661
 421       2.829e+00      -3.411e+00       3.745e-01          -0.003           0.027           1.000       3.614e-01         -0.4451
 422       3.216e+00      -3.411e+00       3.680e-01           0.036           0.041           0.999       3.726e-01         -0.4325
 423       3.603e+00      -3.411e+00       3.458e-01           0.079           0.056           0.995       3.629e-01         -0.4150
 424       3.968e+00      -3.411e+00       3.076e-01           0.132           0.072           0.989       3.332e-01         -0.3691
 425       4.288e+00      -3.412e+00       2.560e-01           0.189           0.088           0.978       2.847e-01         -0.2877
 426       4.547e+00      -3.412e+00       1.995e-01           0.243           0.102           0.965       2.191e-01         -0.1723
 427       4.728e+00      -3.412e+00       1.510e-01           0.280           0.111           0.954       1.384e-01         -0.0742
 428       4.821e+00      -3.412e+00       1.180e-01           0.463           0.152           0.873       5.135e-02          0.1107
Strip 17
 429       4.589e+00      -2.454e+00       6.235e-02          -0.063          -0.062          -0.996       4.904e-02          0.1289
 430       4.490e+00      -2.454e+00       7.880e-02          -0.196          -0.093          -0.976       1.472e-01          0.3057
 431       4.297e+00      -2.454e+00       9.833e-02          -0.039          -0.054          -0.998       2.307e-01          0.4045
 432       4.021e+00      -2.454e+00       8.364e-02           0.123          -0.011          -0.992       3.057e-01          0.3542
 433       3.679e+00      -2.454e+00       2.459e-02           0.209           0.015          -0.978       3.671e-01          0.1940
 434       3.291e+00      -2.455e+00      -5.347e-02           0.186           0.007          -0.983       4.006e-01         -0.0446
 435       2.878e+00      -2.455e+00      -1.105e-01           0.089          -0.026          -0.996       4.071e-01         -0.2178
 436       2.466e+00      -2.455e+00      -1.313e-01           0.010          -0.055          -0.998       3.942e-01         -0.2546
 437       2.077e+00      -2.455e+00      -1.251e-01          -0.045          -0.077          -0.996       3.603e-01         -0.2429
 438       1.735e+00      -2.455e+00      -1.011e-01          -0.099          -0.099          -0.990       3.064e-01         -0.2294
 439       1.460e+00      -2.455e+00      -6.391e-02          -0.177          -0.132          -0.975       2.360e-01         -0.2308
 440       1.267e+00      -2.454e+00      -1.183e-02          -0.372          -0.216          -0.903       1.591e-01         -0.1312
 441       1.167e+00      -2.454e+00       6.292e-02          -0.800          -0.392          -0.455       1.071e-01          0.6626
 442       1.167e+00      -2.454e+00       1.510e-01          -0.809          -0.356           0.467       1.050e-01          0.3299
 443       1.267e+00      -2.454e+00       2.257e-01          -0.379          -0.140           0.915       1.572e-01         -0.6554
 444       1.460e+00      -2.453e+00       2.782e-01          -0.180          -0.048           0.982       2.343e-01         -0.5737
 445       1.735e+00      -2.453e+00       3.154e-01          -0.097          -0.012           0.995       3.047e-01         -0.4883
 446       2.077e+00      -2.453e+00       3.389e-01          -0.044           0.011           0.999       3.591e-01         -0.4538
 447       2.466e+00      -2.453e+00       3.476e-01          -0.003           0.027           1.000       3.935e-01         -0.4364
 448       2.878e+00      -2.453e+00       3.407e-01           0.036           0.041           0.999       4.057e-01         -0.4268
 449       3.291e+00      -2.453e+00       3.171e-01           0.079           0.056           0.995       3.951e-01         -0.4116
 450       3.679e+00      -2.453e+00       2.763e-01           0.132           0.072           0.989       3.628e-01         -0.3674
 451       4.021e+00      -2.454e+00       2.213e-01           0.189           0.088           0.978       3.101e-01         -0.2872
 452       4.297e+00      -2.454e+00       1.610e-01           0.243           0.102           0.965       2.386e-01         -0.1727
 453       4.490e+00      -2.454e+00       1.093e-01           0.280           0.111           0.954       1.507e-01         -0.0754
 454       4.589e+00      -2.454e+00       7.413e-02           0.463           0.152           0.873       5.592e-02          0.1088
Strip 18
 455       4.353e+00      -1.479e+00       1.695e-02          -0.063          -0.062          -0.996       5.286e-02          0.1259
 456       4.248e+00      -1.479e+00       3.444e-02          -0.195          -0.093          -0.976       1.587e-01          0.3032
 457       4.042e+00      -1.479e+00       5.520e-02          -0.039          -0.054          -0.998       2.487e-01          0.4021
 458       3.750e+00      -1.479e+00       3.959e-02           0.123          -0.011          -0.992       3.295e-01          0.3508
 459       3.386e+00      -1.479e+00      -2.320e-02           0.209           0.015          -0.978       3.957e-01          0.1884
 460       2.973e+00      -1.479e+00      -1.062e-01           0.186           0.007          -0.983       4.318e-01         -0.0526
 461       2.534e+00      -1.480e+00      -1.669e-01           0.089          -0.026          -0.996       4.389e-01         -0.2259
 462       2.096e+00      -1.480e+00      -1.890e-01           0.010          -0.055          -0.998       4.249e-01         -0.2608
 463       1.683e+00      -1.480e+00      -1.824e-01          -0.045          -0.077          -0.996       3.884e-01         -0.2471
 464       1.319e+00      -1.480e+00      -1.568e-01          -0.099          -0.099          -0.990       3.303e-01         -0.2333
 465       1.026e+00      -1.480e+00      -1.173e-01          -0.177          -0.132          -0.975       2.544e-01         -0.2381
 466       8.209e-01      -1.479e+00      -6.192e-02          -0.372          -0.216          -0.903       1.715e-01         -0.1502
 467       7.152e-01      -1.479e+00       1.756e-02          -0.799          -0.392          -0.455       1.155e-01          0.6490
 468       7.152e-01      -1.479e+00       1.112e-01          -0.810          -0.356           0.466       1.131e-01          0.3682
 469       8.209e-01      -1.479e+00       1.906e-01          -0.379          -0.140           0.915       1.694e-01         -0.5987
 470       1.026e+00      -1.479e+00       2.465e-01          -0.180          -0.048           0.982       2.526e-01         -0.5360
 471       1.319e+00      -1.479e+00       2.860e-01          -0.097          -0.012           0.995       3.285e-01         -0.4622
 472       1.683e+00      -1.479e+00       3.110e-01          -0.044           0.011           0.999       3.871e-01         -0.4357
 473       2.096e+00      -1.479e+00       3.203e-01          -0.003           0.027           1.000       4.241e-01         -0.4250
 474       2.534e+00      -1.479e+00       3.129e-01           0.036           0.041           0.999       4.373e-01         -0.4210
 475       2.973e+00      -1.479e+00       2.878e-01           0.079           0.056           0.995       4.260e-01         -0.4103
 476       3.386e+00      -1.479e+00       2.444e-01           0.132           0.072           0.989       3.911e-01         -0.3691
 477       3.750e+00      -1.479e+00       1.859e-01           0.189           0.088           0.978       3.343e-01         -0.2900
 478       4.042e+00      -1.479e+00       1.218e-01           0.243           0.102           0.965       2.572e-01         -0.1758
 479       4.248e+00      -1.479e+00       6.687e-02           0.280           0.111           0.954       1.624e-01         -0.0788
 480       4.353e+00      -1.479e+00       2.948e-02           0.463           0.152           0.873       6.029e-02          0.1049
Strip 19
 481       4.115e+00      -4.942e-01      -2.892e-02          -0.063          -0.062          -0.996       5.642e-02          0.1210
 482       4.003e+00      -4.942e-01      -1.038e-02          -0.195          -0.093          -0.976       1.694e-01          0.2994
 483       3.786e+00      -4.942e-01       1.164e-02          -0.039          -0.054          -0.998       2.655e-01          0.3967
 484       3.475e+00      -4.942e-01      -4.920e-03           0.123          -0.011          -0.992       3.517e-01          0.3388
 485       3.090e+00      -4.942e-01      -7.148e-02           0.209           0.015          -0.978       4.223e-01          0.1672
 486       2.652e+00      -4.943e-01      -1.595e-01           0.186           0.007          -0.983       4.608e-01         -0.0772
 487       2.187e+00      -4.943e-01      -2.238e-01           0.089          -0.026          -0.996       4.684e-01         -0.2415
 488       1.722e+00      -4.943e-01      -2.472e-01           0.010          -0.055          -0.998       4.536e-01         -0.2612
 489       1.284e+00      -4.943e-01      -2.402e-01          -0.045          -0.077          -0.996       4.146e-01         -0.2336
 490       8.987e-01      -4.943e-01      -2.132e-01          -0.099          -0.099          -0.990       3.525e-01         -0.2094
 491       5.881e-01      -4.943e-01      -1.712e-01          -0.177          -0.132          -0.975       2.716e-01         -0.2096
 492       3.705e-01      -4.943e-01      -1.125e-01          -0.371          -0.216          -0.903       1.831e-01         -0.1379
 493       2.584e-01      -4.942e-01      -2.827e-02          -0.799          -0.392          -0.456       1.233e-01          0.6368
 494       2.584e-01      -4.941e-01       7.104e-02          -0.810          -0.357           0.466       1.207e-01          0.4301
 495       3.705e-01      -4.941e-01       1.552e-01          -0.379          -0.140           0.915       1.808e-01         -0.4807
 496       5.881e-01      -4.941e-01       2.144e-01          -0.180          -0.048           0.982       2.695e-01         -0.4495
 497       8.987e-01      -4.940e-01       2.563e-01          -0.097          -0.012           0.995       3.506e-01         -0.4059
 498       1.284e+00      -4.940e-01       2.828e-01          -0.044           0.011           0.999       4.131e-01         -0.4002
 499       1.722e+00      -4.940e-01       2.926e-01          -0.003           0.027           1.000       4.527e-01         -0.4064
 500       2.187e+00      -4.940e-01       2.848e-01           0.036           0.041           0.999       4.668e-01         -0.4173
 501       2.652e+00      -4.940e-01       2.582e-01           0.079           0.056           0.995       4.547e-01         -0.4194
 502       3.090e+00      -4.941e-01       2.122e-01           0.132           0.072           0.989       4.175e-01         -0.3859
 503       3.475e+00      -4.941e-01       1.502e-01           0.189           0.088           0.978       3.568e-01         -0.3077
 504       3.786e+00      -4.941e-01       8.228e-02           0.243           0.102           0.965       2.745e-01         -0.1901
 505       4.003e+00      -4.942e-01       2.400e-02           0.280           0.111           0.954       1.734e-01         -0.0895
 506       4.115e+00      -4.942e-01      -1.564e-02           0.463           0.152           0.873       6.436e-02          0.0962
Strip 20
 507       4.115e+00       4.942e-01      -2.892e-02          -0.063           0.062          -0.996       5.642e-02          0.1210
 508       4.003e+00       4.942e-01      -1.038e-02          -0.195           0.093          -0.976       1.694e-01          0.2994
 509       3.786e+00       4.942e-01       1.164e-02          -0.039           0.054          -0.998       2.655e-01          0.3967
 510       3.475e+00       4.942e-01      -4.920e-03           0.123           0.011          -0.992       3.517e-01          0.3388
 511       3.090e+00       4.942e-01      -7.148e-02           0.209          -0.015          -0.978       4.223e-01          0.1672
 512       2.652e+00       4.943e-01      -1.595e-01           0.186          -0.007          -0.983       4.608e-01         -0.0772
 513       2.187e+00       4.943e-01      -2.238e-01           0.089           0.026          -0.996       4.684e-01         -0.2415
 514       1.722e+00       4.943e-01      -2.472e-01           0.010           0.055          -0.998       4.536e-01         -0.2612
 515       1.284e+00       4.943e-01      -2.402e-01          -0.045           0.077          -0.996       4.146e-01         -0.2336
 516       8.987e-01       4.943e-01      -2.132e-01          -0.099           0.099          -0.990       3.525e-01         -0.2094
 517       5.881e-01       4.943e-01      -1.712e-01          -0.177           0.132          -0.975       2.716e-01         -0.2096
 518       3.705e-01       4.943e-01      -1.125e-01          -0.371           0.216          -0.903       1.831e-01         -0.1379
 519       2.584e-01       4.942e-01      -2.827e-02          -0.799           0.392          -0.456       1.233e-01          0.6368
 520       2.584e-01       4.941e-01       7.104e-02          -0.810           0.357           0.466       1.207e-01          0.4301
 521       3.705e-01       4.941e-01       1.552e-01          -0.379           0.140           0.915       1.808e-01         -0.4807
 522       5.881e-01       4.941e-01       2.144e-01          -0.180           0.048           0.982       2.695e-01         -0.4495
 523       8.987e-01       4.940e-01       2.563e-01          -0.097           0.012           0.995       3.506e-01         -0.4059
 524       1.284e+00       4.940e-01       2.828e-01          -0.044          -0.011           0.999       4.131e-01         -0.4002
 525       1.722e+00       4.940e-01       2.926e-01          -0.003          -0.027           1.000       4.527e-01         -0.4064
 526       2.187e+00       4.940e-01       2.848e-01           0.036          -0.041           0.999       4.668e-01         -0.4173
 527       2.652e+00       4.940e-01       2.582e-01           0.079          -0.056           0.995       4.547e-01         -0.4194
 528       3.090e+00       4.941e-01       2.122e-01           0.132          -0.072           0.989       4.175e-01         -0.3859
 529       3.475e+00       4.941e-01       1.502e-01           0.189          -0.088           0.978       3.568e-01         -0.3077
 530       3.786e+00       4.941e-01       8.228e-02           0.243          -0.102           0.965       2.745e-01         -0.1901
 531       4.003e+00       4.942e-01       2.400e-02           0.280          -0.111           0.954       1.734e-01         -0.0895
 532       4.115e+00       4.942e-01      -1.564e-02           0.463          -0.152           0.873       6.436e-02          0.0962
Strip 21
 533       4.353e+00       1.479e+00       1.695e-02          -0.063           0.062          -0.996       5.286e-02          0.1259
 534       4.248e+00       1.479e+00       3.444e-02          -0.195           0.093          -0.976       1.587e-01          0.3032
 535       4.042e+00       1.479e+00       5.520e-02          -0.039           0.054          -0.998       2.487e-01          0.4021
 536       3.750e+00       1.479e+00       3.959e-02           0.123           0.011          -0.992       3.295e-01          0.3508
 537       3.386e+00       1.479e+00      -2.320e-02           0.209          -0.015          -0.978       3.957e-01          0.1884
 538       2.973e+00       1.479e+00      -1.062e-01           0.186          -0.007          -0.983       4.318e-01         -0.0526
 539       2.534e+00       1.480e+00      -1.669e-01           0.089           0.026          -0.996       4.389e-01         -0.2259
 540       2.096e+00       1.480e+00      -1.890e-01           0.010           0.055          -0.998       4.249e-01         -0.2608
 541       1.683e+00       1.480e+00      -1.824e-01          -0.045           0.077          -0.996       3.884e-01         -0.2471
 542       1.319e+00       1.480e+00      -1.568e-01          -0.099           0.099          -0.990       3.303e-01         -0.2333
 543       1.026e+00       1.480e+00      -1.173e-01          -0.177           0.132          -0.975       2.544e-01         -0.2381
 544       8.209e-01       1.479e+00      -6.192e-02          -0.372           0.216          -0.903       1.715e-01         -0.1502
 545       7.152e-01       1.479e+00       1.756e-02          -0.799           0.392          -0.455       1.155e-01          0.6490
 546       7.152e-01       1.479e+00       1.112e-01          -0.810           0.356           0.466       1.131e-01          0.3682
 547       8.209e-01       1.479e+00       1.906e-01          -0.379           0.140           0.915       1.694e-01         -0.5987
 548       1.026e+00       1.479e+00       2.465e-01          -0.180           0.048           0.982       2.526e-01         -0.5360
 549       1.319e+00       1.479e+00       2.860e-01          -0.097           0.012           0.995       3.285e-01         -0.4622
 550       1.683e+00       1.479e+00       3.110e-01          -0.044          -0.011           0.999       3.871e-01         -0.4357
 551       2.096e+00       1.479e+00       3.203e-01          -0.003          -0.027           1.000       4.241e-01         -0.4250
 552       2.534e+00       1.479e+00       3.129e-01           0.036          -0.041           0.999       4.373e-01         -0.4210
 553       2.973e+00       1.479e+00       2.878e-01           0.079          -0.056           0.995       4.260e-01         -0.4103
 554       3.386e+00       1.479e+00       2.444e-01           0.132          -0.072           0.989       3.911e-01         -0.3691
 555       3.750e+00       1.479e+00       1.859e-01           0.189          -0.088           0.978       3.343e-01         -0.2900
 556       4.042e+00       1.479e+00       1.218e-01           0.243          -0.102           0.965       2.572e-01         -0.1758
 557       4.248e+00       1.479e+00       6.687e-02           0.280          -0.111           0.954       1.624e-01         -0.0788
 558       4.353e+00       1.479e+00       2.948e-02           0.463          -0.152           0.873       6.029e-02          0.1049
Strip 22
 559       4.589e+00       2.454e+00       6.235e-02          -0.063           0.062          -0.996       4.904e-02          0.1289
 560       4.490e+00       2.454e+00       7.880e-02          -0.196           0.093          -0.976       1.472e-01          0.3057
 561       4.297e+00       2.454e+00       9.833e-02          -0.039           0.054          -0.998       2.307e-01          0.4045
 562       4.021e+00       2.454e+00       8.364e-02           0.123           0.011          -0.992       3.057e-01          0.3542
 563       3.679e+00       2.454e+00       2.459e-02           0.209          -0.015          -0.978       3.671e-01          0.1940
 564       3.291e+00       2.455e+00      -5.347e-02           0.186          -0.007          -0.983       4.006e-01         -0.0446
 565       2.878e+00       2.455e+00      -1.105e-01           0.089           0.026          -0.996       4.071e-01         -0.2178
 566       2.466e+00       2.455e+00      -1.313e-01           0.010           0.055          -0.998       3.942e-01         -0.2546
 567       2.077e+00       2.455e+00      -1.251e-01          -0.045           0.077          -0.996       3.603e-01         -0.2429
 568       1.735e+00       2.455e+00      -1.011e-01          -0.099           0.099          -0.990       3.064e-01         -0.2294
[...]
 852       5.612e+00       1.075e+01       3.589e-01           0.010           0.055          -0.998       8.182e-02         -0.2325
 853       5.432e+00       1.075e+01       3.618e-01          -0.045           0.077          -0.996       7.474e-02         -0.2141
 854       5.274e+00       1.075e+01       3.729e-01          -0.099           0.099          -0.990       6.350e-02         -0.1884
 855       5.147e+00       1.075e+01       3.901e-01          -0.177           0.132          -0.975       4.887e-02         -0.1652
 856       5.057e+00       1.075e+01       4.141e-01          -0.373           0.217          -0.902       3.287e-02         -0.0166
 857       5.011e+00       1.074e+01       4.486e-01          -0.804           0.393          -0.446       2.212e-02          0.7272
 858       5.011e+00       1.074e+01       4.893e-01          -0.805           0.354           0.475       2.189e-02          0.1759
 859       5.057e+00       1.074e+01       5.238e-01          -0.377           0.140           0.916       3.277e-02         -0.8305
 860       5.147e+00       1.074e+01       5.481e-01          -0.180           0.048           0.983       4.874e-02         -0.6729
 861       5.274e+00       1.074e+01       5.652e-01          -0.097           0.011           0.995       6.332e-02         -0.5492
 862       5.432e+00       1.074e+01       5.761e-01          -0.044          -0.011           0.999       7.456e-02         -0.4922
 863       5.612e+00       1.074e+01       5.801e-01          -0.003          -0.027           1.000       8.166e-02         -0.4587
 864       5.803e+00       1.074e+01       5.769e-01           0.036          -0.041           0.999       8.416e-02         -0.4372
 865       5.993e+00       1.074e+01       5.660e-01           0.079          -0.056           0.995       8.194e-02         -0.4138
 866       6.173e+00       1.074e+01       5.472e-01           0.132          -0.072           0.989       7.520e-02         -0.3650
 867       6.331e+00       1.074e+01       5.218e-01           0.190          -0.088           0.978       6.425e-02         -0.2826
 868       6.459e+00       1.074e+01       4.939e-01           0.243          -0.102           0.965       4.942e-02         -0.1670
 869       6.548e+00       1.074e+01       4.701e-01           0.281          -0.111           0.953       3.121e-02         -0.0690
 870       6.594e+00       1.074e+01       4.538e-01           0.465          -0.152           0.872       1.157e-02          0.1182
Strip 34
 871       6.690e+00       1.114e+01       4.669e-01          -0.063           0.062          -0.996       7.950e-03          0.1327
 872       6.647e+00       1.114e+01       4.740e-01          -0.196           0.093          -0.976       2.383e-02          0.3054
 873       6.562e+00       1.114e+01       4.826e-01          -0.039           0.054          -0.998       3.741e-02          0.4009
 874       6.442e+00       1.114e+01       4.761e-01           0.123           0.011          -0.992       4.964e-02          0.3505
 875       6.293e+00       1.114e+01       4.504e-01           0.209          -0.015          -0.978       5.967e-02          0.1939
 876       6.123e+00       1.114e+01       4.163e-01           0.185          -0.007          -0.983       6.510e-02         -0.0378
 877       5.943e+00       1.114e+01       3.915e-01           0.089           0.026          -0.996       6.611e-02         -0.2049
 878       5.763e+00       1.114e+01       3.824e-01           0.010           0.055          -0.998       6.395e-02         -0.2382
 879       5.593e+00       1.114e+01       3.851e-01          -0.045           0.077          -0.996       5.841e-02         -0.2217
 880       5.444e+00       1.114e+01       3.956e-01          -0.099           0.099          -0.990       4.963e-02         -0.1979
 881       5.323e+00       1.114e+01       4.118e-01          -0.177           0.132          -0.975       3.819e-02         -0.1771
 882       5.239e+00       1.114e+01       4.345e-01          -0.374           0.217          -0.902       2.568e-02         -0.0336
 883       5.196e+00       1.114e+01       4.671e-01          -0.804           0.394          -0.445       1.728e-02          0.7184
 884       5.196e+00       1.114e+01       5.055e-01          -0.805           0.354           0.476       1.712e-02          0.1914
 885       5.239e+00       1.114e+01       5.381e-01          -0.377           0.139           0.916       2.562e-02         -0.8067
 886       5.323e+00       1.114e+01       5.610e-01          -0.180           0.048           0.983       3.810e-02         -0.6555
 887       5.444e+00       1.114e+01       5.772e-01          -0.097           0.011           0.995       4.950e-02         -0.5334
 888       5.593e+00       1.114e+01       5.874e-01          -0.044          -0.011           0.999       5.828e-02         -0.4756
 889       5.763e+00       1.114e+01       5.913e-01          -0.003          -0.027           1.000       6.382e-02         -0.4404
 890       5.943e+00       1.114e+01       5.882e-01           0.036          -0.041           0.999       6.578e-02         -0.4179
 891       6.123e+00       1.114e+01       5.779e-01           0.079          -0.056           0.995       6.404e-02         -0.3951
 892       6.293e+00       1.114e+01       5.602e-01           0.132          -0.072           0.989       5.877e-02         -0.3488
 893       6.442e+00       1.114e+01       5.362e-01           0.190          -0.088           0.978       5.021e-02         -0.2704
 894       6.562e+00       1.114e+01       5.099e-01           0.243          -0.102           0.965       3.862e-02         -0.1592
 895       6.647e+00       1.114e+01       4.873e-01           0.281          -0.111           0.953       2.439e-02         -0.0648
 896       6.690e+00       1.114e+01       4.720e-01           0.465          -0.152           0.872       9.043e-03          0.1213
Strip 35
 897       6.768e+00       1.146e+01       4.818e-01          -0.063           0.062          -0.996       5.943e-03          0.1274
 898       6.726e+00       1.146e+01       4.886e-01          -0.196           0.093          -0.976       1.782e-02          0.2986
 899       6.646e+00       1.146e+01       4.967e-01          -0.039           0.054          -0.998       2.796e-02          0.3932
 900       6.531e+00       1.146e+01       4.906e-01           0.122           0.011          -0.992       3.711e-02          0.3435
 901       6.389e+00       1.146e+01       4.661e-01           0.209          -0.015          -0.978       4.461e-02          0.1888
 902       6.228e+00       1.146e+01       4.337e-01           0.185          -0.007          -0.983       4.868e-02         -0.0403
 903       6.056e+00       1.146e+01       4.100e-01           0.089           0.026          -0.996       4.942e-02         -0.2061
 904       5.884e+00       1.147e+01       4.014e-01           0.010           0.055          -0.998       4.781e-02         -0.2414
 905       5.723e+00       1.146e+01       4.040e-01          -0.045           0.077          -0.996       4.366e-02         -0.2294
 906       5.581e+00       1.146e+01       4.139e-01          -0.099           0.099          -0.990       3.709e-02         -0.2109
 907       5.466e+00       1.146e+01       4.294e-01          -0.178           0.132          -0.975       2.854e-02         -0.1958
 908       5.386e+00       1.146e+01       4.510e-01          -0.374           0.217          -0.902       1.919e-02         -0.0611
 909       5.344e+00       1.146e+01       4.820e-01          -0.805           0.394          -0.444       1.291e-02          0.7018
 910       5.344e+00       1.146e+01       5.186e-01          -0.805           0.354           0.477       1.280e-02          0.2122
 911       5.386e+00       1.146e+01       5.496e-01          -0.377           0.139           0.916       1.916e-02         -0.7728
 912       5.466e+00       1.146e+01       5.715e-01          -0.180           0.048           0.983       2.849e-02         -0.6293
 913       5.581e+00       1.146e+01       5.869e-01          -0.097           0.011           0.995       3.700e-02         -0.5078
 914       5.723e+00       1.146e+01       5.966e-01          -0.044          -0.011           0.999       4.357e-02         -0.4465
 915       5.884e+00       1.146e+01       6.003e-01          -0.003          -0.027           1.000       4.771e-02         -0.4077
 916       6.056e+00       1.146e+01       5.974e-01           0.036          -0.041           0.999       4.917e-02         -0.3839
 917       6.228e+00       1.146e+01       5.876e-01           0.079          -0.056           0.995       4.787e-02         -0.3630
 918       6.389e+00       1.146e+01       5.706e-01           0.132          -0.072           0.989       4.393e-02         -0.3221
 919       6.531e+00       1.146e+01       5.478e-01           0.190          -0.088           0.978       3.753e-02         -0.2518
 920       6.646e+00       1.146e+01       5.228e-01           0.243          -0.102           0.965       2.886e-02         -0.1491
 921       6.726e+00       1.146e+01       5.013e-01           0.281          -0.111           0.953       1.823e-02         -0.0623
 922       6.768e+00       1.146e+01       4.867e-01           0.465          -0.152           0.872       6.758e-03          0.1214
Strip 36
 923       6.826e+00       1.170e+01       4.931e-01          -0.063           0.062          -0.996       4.112e-03          0.1057
 924       6.787e+00       1.170e+01       4.997e-01          -0.196           0.093          -0.976       1.233e-02          0.2736
 925       6.709e+00       1.170e+01       5.075e-01          -0.039           0.054          -0.998       1.935e-02          0.3677
 926       6.599e+00       1.170e+01       5.016e-01           0.122           0.011          -0.992       2.568e-02          0.3226
 927       6.462e+00       1.171e+01       4.780e-01           0.209          -0.015          -0.978       3.088e-02          0.1763
 928       6.307e+00       1.171e+01       4.468e-01           0.185          -0.007          -0.983       3.369e-02         -0.0414
 929       6.142e+00       1.171e+01       4.240e-01           0.089           0.026          -0.996       3.420e-02         -0.1975
 930       5.977e+00       1.171e+01       4.157e-01           0.010           0.055          -0.998       3.308e-02         -0.2313
 931       5.821e+00       1.171e+01       4.182e-01          -0.045           0.077          -0.996       3.021e-02         -0.2274
 932       5.684e+00       1.171e+01       4.278e-01          -0.099           0.099          -0.990       2.567e-02         -0.2229
 933       5.574e+00       1.171e+01       4.427e-01          -0.178           0.132          -0.975       1.975e-02         -0.2227
 934       5.497e+00       1.171e+01       4.635e-01          -0.374           0.217          -0.902       1.327e-02         -0.1047
 935       5.457e+00       1.170e+01       4.933e-01          -0.805           0.394          -0.444       8.930e-03          0.6677
 936       5.457e+00       1.170e+01       5.285e-01          -0.804           0.354           0.478       8.863e-03          0.2299
 937       5.497e+00       1.170e+01       5.584e-01          -0.377           0.139           0.916       1.327e-02         -0.7317
 938       5.574e+00       1.170e+01       5.794e-01          -0.180           0.048           0.983       1.972e-02         -0.5920
 939       5.684e+00       1.170e+01       5.942e-01          -0.097           0.011           0.995       2.561e-02         -0.4652
 940       5.821e+00       1.170e+01       6.036e-01          -0.044          -0.011           0.999       3.015e-02         -0.3959
 941       5.977e+00       1.170e+01       6.071e-01          -0.003          -0.027           1.000       3.302e-02         -0.3536
 942       6.142e+00       1.170e+01       6.043e-01           0.036          -0.041           0.999       3.402e-02         -0.3311
 943       6.307e+00       1.170e+01       5.949e-01           0.079          -0.056           0.995       3.312e-02         -0.3157
 944       6.462e+00       1.170e+01       5.786e-01           0.132          -0.072           0.989       3.040e-02         -0.2850
 945       6.599e+00       1.170e+01       5.566e-01           0.190          -0.088           0.978       2.597e-02         -0.2293
 946       6.709e+00       1.170e+01       5.325e-01           0.243          -0.102           0.965       1.997e-02         -0.1433
 947       6.787e+00       1.170e+01       5.119e-01           0.281          -0.111           0.953       1.261e-02         -0.0731
 948       6.826e+00       1.170e+01       4.978e-01           0.465          -0.152           0.872       4.675e-03          0.1056
Strip 37
 949       6.866e+00       1.187e+01       5.007e-01          -0.063           0.062          -0.996       2.413e-03          0.0222
 950       6.827e+00       1.187e+01       5.071e-01          -0.196           0.093          -0.976       7.233e-03          0.1774
 951       6.752e+00       1.187e+01       5.147e-01          -0.039           0.054          -0.998       1.136e-02          0.2788
 952       6.644e+00       1.187e+01       5.090e-01           0.122           0.011          -0.992       1.507e-02          0.2602
 953       6.511e+00       1.187e+01       4.860e-01           0.209          -0.015          -0.978       1.812e-02          0.1433
 954       6.360e+00       1.187e+01       4.556e-01           0.185          -0.007          -0.983       1.977e-02         -0.0440
 955       6.199e+00       1.187e+01       4.334e-01           0.089           0.026          -0.996       2.007e-02         -0.1743
 956       6.038e+00       1.187e+01       4.253e-01           0.010           0.055          -0.998       1.941e-02         -0.1990
 957       5.887e+00       1.187e+01       4.278e-01          -0.045           0.077          -0.996       1.773e-02         -0.1993
 958       5.754e+00       1.187e+01       4.371e-01          -0.099           0.099          -0.990       1.506e-02         -0.2122
 959       5.646e+00       1.187e+01       4.516e-01          -0.178           0.132          -0.975       1.159e-02         -0.2465
 960       5.571e+00       1.187e+01       4.718e-01          -0.374           0.217          -0.902       7.787e-03         -0.1779
 961       5.532e+00       1.187e+01       5.009e-01          -0.805           0.394          -0.443       5.239e-03          0.5661
 962       5.532e+00       1.187e+01       5.352e-01          -0.804           0.353           0.478       5.203e-03          0.2045
 963       5.571e+00       1.186e+01       5.642e-01          -0.377           0.139           0.916       7.787e-03         -0.6851
 964       5.646e+00       1.186e+01       5.847e-01          -0.180           0.048           0.983       1.157e-02         -0.5278
 965       5.754e+00       1.186e+01       5.991e-01          -0.097           0.011           0.995       1.503e-02         -0.3889
 966       5.887e+00       1.186e+01       6.082e-01          -0.044          -0.011           0.999       1.769e-02         -0.3198
 967       6.038e+00       1.186e+01       6.116e-01          -0.003          -0.027           1.000       1.938e-02         -0.2836
 968       6.199e+00       1.186e+01       6.089e-01           0.036          -0.041           0.999       1.997e-02         -0.2666
 969       6.360e+00       1.186e+01       5.998e-01           0.079          -0.056           0.995       1.944e-02         -0.2585
 970       6.511e+00       1.186e+01       5.839e-01           0.132          -0.072           0.989       1.784e-02         -0.2454
 971       6.644e+00       1.186e+01       5.625e-01           0.190          -0.088           0.978       1.524e-02         -0.2236
 972       6.752e+00       1.187e+01       5.391e-01           0.243          -0.102           0.965       1.172e-02         -0.1837
 973       6.827e+00       1.187e+01       5.189e-01           0.281          -0.111           0.953       7.400e-03         -0.1591
 974       6.866e+00       1.187e+01       5.053e-01           0.465          -0.152           0.872       2.743e-03          0.0074
Strip 38
 975       6.885e+00       1.195e+01       5.045e-01          -0.063           0.062          -0.996       7.953e-04         -0.0724
 976       6.847e+00       1.195e+01       5.108e-01          -0.196           0.093          -0.976       2.384e-03          0.0361
 977       6.773e+00       1.195e+01       5.183e-01          -0.039           0.054          -0.998       3.742e-03          0.1165
 978       6.667e+00       1.195e+01       5.126e-01           0.122           0.011          -0.992       4.967e-03          0.1325
 979       6.536e+00       1.195e+01       4.900e-01           0.209          -0.015          -0.978       5.972e-03          0.0742
 980       6.386e+00       1.195e+01       4.600e-01           0.185          -0.007          -0.983       6.516e-03         -0.0499
 981       6.228e+00       1.195e+01       4.382e-01           0.089           0.026          -0.996       6.616e-03         -0.1396
 982       6.069e+00       1.195e+01       4.302e-01           0.010           0.055          -0.998       6.398e-03         -0.1561
 983       5.920e+00       1.195e+01       4.326e-01          -0.045           0.077          -0.996       5.843e-03         -0.1569
 984       5.789e+00       1.195e+01       4.418e-01          -0.099           0.099          -0.990       4.963e-03         -0.1688
 985       5.683e+00       1.195e+01       4.560e-01          -0.178           0.132          -0.975       3.818e-03         -0.2059
 986       5.608e+00       1.195e+01       4.760e-01          -0.374           0.217          -0.902       2.566e-03         -0.1784
 987       5.570e+00       1.195e+01       5.047e-01          -0.805           0.394          -0.443       1.726e-03          0.4731
 988       5.570e+00       1.195e+01       5.385e-01          -0.804           0.353           0.478       1.715e-03          0.1958
 989       5.608e+00       1.195e+01       5.671e-01          -0.376           0.139           0.916       2.567e-03         -0.5726
 990       5.683e+00       1.195e+01       5.873e-01          -0.180           0.048           0.983       3.814e-03         -0.4187
 991       5.789e+00       1.194e+01       6.016e-01          -0.097           0.011           0.995       4.953e-03         -0.3028
 992       5.920e+00       1.194e+01       6.106e-01          -0.044          -0.011           0.999       5.832e-03         -0.2523
 993       6.069e+00       1.194e+01       6.139e-01          -0.003          -0.027           1.000       6.386e-03         -0.2254
 994       6.228e+00       1.194e+01       6.113e-01           0.036          -0.041           0.999       6.580e-03         -0.2096
 995       6.386e+00       1.194e+01       6.022e-01           0.079          -0.056           0.995       6.406e-03         -0.1976
 996       6.536e+00       1.195e+01       5.866e-01           0.132          -0.072           0.989       5.878e-03         -0.1822
 997       6.667e+00       1.195e+01       5.654e-01           0.190          -0.088           0.978       5.021e-03         -0.1757
 998       6.773e+00       1.195e+01       5.423e-01           0.243          -0.102           0.965       3.862e-03         -0.1879
 999       6.847e+00       1.195e+01       5.225e-01           0.281          -0.111           0.953       2.438e-03         -0.2243
1000       6.885e+00       1.195e+01       5.090e-01           0.465          -0.152           0.872       9.040e-04         -0.0843










