xflr5 v6.61

Plane Name
T1-10.0 m/s-Panel-0.0kg-x0.0m-Inviscid
QInf  =   10.000000 m/s
Alpha =    0.000000
Beta  =    0.000°
Phi   =    0.000°
Ctrl  =    0.000
CL    =    0.382427
Cy    =   -0.000000
Cd    =    0.004866     ICd   =    0.004866     PCd   =    0.000000
Cl   = -4.67062e-16
Cm   =   -0.544671
ICn   =   -0.000000     PCn   =   -0.000000 
XCP   =    4.410077     YCP   =    0.000000     ZCP   =    0.485406  
XNP   =    0.000000
Bending = 4694.801084

Main Wing
  y-span        Chord      Ai         Cl        PCd          ICd        CmGeom    CmAirf@chord/4    XTrtop    XTrBot      XCP       BM
  -13.4270     1.3351    -5.024    0.151519    0.000000    0.013324   -0.929329   -0.052160     0.0000    0.0000    0.5414    0.0000
  -13.3353     1.3556    -3.405    0.242326    0.000000    0.014422   -1.305884   -0.079158     0.0000    0.0000    0.5604    0.0539
  -13.1525     1.3964    -2.247    0.311226    0.000000    0.012216   -1.535229   -0.090344     0.0000    0.0000    0.5382    0.6831
  -12.8798     1.4572    -1.544    0.357837    0.000000    0.009646   -1.660264   -0.098756     0.0000    0.0000    0.5244    3.3298
  -12.5192     1.5376    -1.135    0.388177    0.000000    0.007693   -1.677673   -0.104144     0.0000    0.0000    0.5157   10.6002
  -12.0730     1.6371    -0.887    0.406633    0.000000    0.006299   -1.613875   -0.107354     0.0000    0.0000    0.5108   26.3952
  -11.5444     1.7550    -0.735    0.416587    0.000000    0.005345   -1.499020   -0.109170     0.0000    0.0000    0.5085   55.9680
  -10.9369     1.8905    -0.645    0.420614    0.000000    0.004734   -1.357714   -0.110164     0.0000    0.0000    0.5083   105.9250
  -10.2547     2.0427    -0.597    0.420540    0.000000    0.004382   -1.207112   -0.110688     0.0000    0.0000    0.5096   184.1711
   -9.5025     2.2105    -0.578    0.417569    0.000000    0.004214   -1.058014   -0.110940     0.0000    0.0000    0.5122   299.7933
   -8.6853     2.3928    -0.580    0.412468    0.000000    0.004173   -0.916697   -0.111030     0.0000    0.0000    0.5158   462.8626
   -7.8088     2.5883    -0.595    0.405696    0.000000    0.004217   -0.786432   -0.111020     0.0000    0.0000    0.5205   684.1468
   -6.8790     2.7957    -0.622    0.397499    0.000000    0.004315   -0.668615   -0.110945     0.0000    0.0000    0.5263   974.7241
   -5.9021     3.0135    -0.656    0.387970    0.000000    0.004441   -0.563487   -0.110829     0.0000    0.0000    0.5332   1345.5010
   -4.8850     3.2404    -0.694    0.377083    0.000000    0.004572   -0.470682   -0.110690     0.0000    0.0000    0.5415   1806.6409
   -3.8345     3.4747    -0.735    0.364682    0.000000    0.004682   -0.389496   -0.110554     0.0000    0.0000    0.5517   2366.9233
   -2.7578     3.7149    -0.773    0.350465    0.000000    0.004729   -0.319178   -0.110491     0.0000    0.0000    0.5646   3033.0469
   -1.6622     3.9592    -0.790    0.333846    0.000000    0.004610   -0.259087   -0.110650     0.0000    0.0000    0.5817   3808.9022
   -0.5553     4.2061    -0.696    0.313287    0.000000    0.003820   -0.209288   -0.111703     0.0000    0.0000    0.6068   4694.8011
    0.5553     4.2061    -0.696    0.313287    0.000000    0.003820   -0.209288   -0.111703     0.0000    0.0000    0.6068   4694.8011
    1.6622     3.9592    -0.790    0.333846    0.000000    0.004610   -0.259087   -0.110650     0.0000    0.0000    0.5817   3808.9022
    2.7578     3.7149    -0.773    0.350465    0.000000    0.004729   -0.319178   -0.110491     0.0000    0.0000    0.5646   3033.0469
    3.8345     3.4747    -0.735    0.364682    0.000000    0.004682   -0.389496   -0.110554     0.0000    0.0000    0.5517   2366.9233
    4.8850     3.2404    -0.694    0.377083    0.000000    0.004572   -0.470682   -0.110690     0.0000    0.0000    0.5415   1806.6409
    5.9021     3.0135    -0.656    0.387970    0.000000    0.004441   -0.563487   -0.110829     0.0000    0.0000    0.5332   1345.5010
    6.8790     2.7957    -0.622    0.397499    0.000000    0.004315   -0.668615   -0.110945     0.0000    0.0000    0.5263   974.7241
    7.8088     2.5883    -0.595    0.405696    0.000000    0.004217   -0.786432   -0.111020     0.0000    0.0000    0.5205   684.1468
    8.6853     2.3928    -0.580    0.412468    0.000000    0.004173   -0.916697   -0.111030     0.0000    0.0000    0.5158   462.8626
    9.5025     2.2105    -0.578    0.417569    0.000000    0.004214   -1.058014   -0.110940     0.0000    0.0000    0.5122   299.7933
   10.2547     2.0427    -0.597    0.420540    0.000000    0.004382   -1.207112   -0.110688     0.0000    0.0000    0.5096   184.1711
   10.9369     1.8905    -0.645    0.420614    0.000000    0.004734   -1.357714   -0.110164     0.0000    0.0000    0.5083   105.9250
   11.5444     1.7550    -0.735    0.416587    0.000000    0.005345   -1.499020   -0.109170     0.0000    0.0000    0.5085   55.9680
   12.0730     1.6371    -0.887    0.406633    0.000000    0.006299   -1.613875   -0.107354     0.0000    0.0000    0.5108   26.3952
   12.5192     1.5376    -1.135    0.388177    0.000000    0.007693   -1.677673   -0.104144     0.0000    0.0000    0.5157   10.6002
   12.8798     1.4572    -1.544    0.357837    0.000000    0.009646   -1.660264   -0.098756     0.0000    0.0000    0.5244    3.3298
   13.1525     1.3964    -2.247    0.311226    0.000000    0.012216   -1.535229   -0.090344     0.0000    0.0000    0.5382    0.6831
   13.3353     1.3556    -3.405    0.242326    0.000000    0.014422   -1.305884   -0.079158     0.0000    0.0000    0.5604    0.0539
   13.4270     1.3351    -5.024    0.151519    0.000000    0.013324   -0.929329   -0.052160     0.0000    0.0000    0.5414    0.0000


Main Wing Cp Coefficients
 Panel     CtrlPt.x        CtrlPt.y        CtrlPt.z       Nx      Ny       Nz        Area       Cp
Main WingCp Coefficients
Strip 1
  13       7.565e+00      -1.341e+01       5.685e-01          -0.063          -0.062          -0.996       8.932e-04         -0.0513
  14       7.527e+00      -1.341e+01       5.748e-01          -0.196          -0.093          -0.976       2.677e-03          0.0593
  15       7.452e+00      -1.341e+01       5.823e-01          -0.039          -0.054          -0.998       4.203e-03          0.1341
  16       7.346e+00      -1.341e+01       5.767e-01           0.122          -0.011          -0.992       5.579e-03          0.1410
  17       7.215e+00      -1.342e+01       5.540e-01           0.209           0.015          -0.978       6.708e-03          0.0780
  18       7.065e+00      -1.342e+01       5.240e-01           0.185           0.007          -0.983       7.319e-03         -0.0490
  19       6.907e+00      -1.342e+01       5.021e-01           0.089          -0.026          -0.996       7.430e-03         -0.1407
  20       6.748e+00      -1.342e+01       4.941e-01           0.010          -0.055          -0.998       7.186e-03         -0.1573
  21       6.599e+00      -1.342e+01       4.965e-01          -0.045          -0.077          -0.996       6.563e-03         -0.1576
  22       6.467e+00      -1.342e+01       5.057e-01          -0.099          -0.099          -0.990       5.574e-03         -0.1685
  23       6.362e+00      -1.342e+01       5.200e-01          -0.178          -0.132          -0.975       4.288e-03         -0.2041
  24       6.287e+00      -1.342e+01       5.400e-01          -0.374          -0.217          -0.902       2.882e-03         -0.1717
  25       6.249e+00      -1.341e+01       5.687e-01          -0.805          -0.394          -0.443       1.939e-03          0.4970
  26       6.249e+00      -1.341e+01       6.025e-01          -0.804          -0.353           0.478       1.926e-03          0.2020
  27       6.287e+00      -1.341e+01       6.312e-01          -0.376          -0.139           0.916       2.883e-03         -0.5877
  28       6.362e+00      -1.341e+01       6.513e-01          -0.180          -0.048           0.983       4.284e-03         -0.4282
  29       6.467e+00      -1.341e+01       6.656e-01          -0.097          -0.011           0.995       5.564e-03         -0.3088
  30       6.599e+00      -1.341e+01       6.746e-01          -0.044           0.011           0.999       6.550e-03         -0.2569
  31       6.748e+00      -1.341e+01       6.780e-01          -0.003           0.027           1.000       7.172e-03         -0.2292
  32       6.907e+00      -1.341e+01       6.753e-01           0.036           0.041           0.999       7.391e-03         -0.2129
  33       7.065e+00      -1.341e+01       6.662e-01           0.079           0.056           0.995       7.195e-03         -0.2004
  34       7.215e+00      -1.341e+01       6.506e-01           0.132           0.072           0.989       6.602e-03         -0.1844
  35       7.346e+00      -1.341e+01       6.295e-01           0.190           0.089           0.978       5.640e-03         -0.1745
  36       7.452e+00      -1.341e+01       6.064e-01           0.243           0.103           0.964       4.337e-03         -0.1767
  37       7.527e+00      -1.341e+01       5.865e-01           0.281           0.112           0.953       2.739e-03         -0.2012
  38       7.565e+00      -1.341e+01       5.730e-01           0.465           0.153           0.872       1.015e-03         -0.0562
Strip 2
  39       7.542e+00      -1.332e+01       5.642e-01          -0.063          -0.062          -0.996       2.715e-03          0.0347
  40       7.504e+00      -1.332e+01       5.706e-01          -0.196          -0.093          -0.976       8.137e-03          0.1917
  41       7.428e+00      -1.332e+01       5.782e-01          -0.039          -0.054          -0.998       1.277e-02          0.2916
  42       7.321e+00      -1.332e+01       5.725e-01           0.122          -0.011          -0.992       1.695e-02          0.2690
  43       7.187e+00      -1.332e+01       5.495e-01           0.209           0.015          -0.978       2.038e-02          0.1485
  44       7.036e+00      -1.333e+01       5.191e-01           0.185           0.007          -0.983       2.224e-02         -0.0424
  45       6.874e+00      -1.333e+01       4.968e-01           0.089          -0.026          -0.996       2.258e-02         -0.1759
  46       6.713e+00      -1.333e+01       4.887e-01           0.010          -0.055          -0.998       2.184e-02         -0.2017
  47       6.562e+00      -1.333e+01       4.912e-01          -0.045          -0.077          -0.996       1.994e-02         -0.2015
  48       6.428e+00      -1.333e+01       5.005e-01          -0.099          -0.099          -0.990       1.694e-02         -0.2124
  49       6.321e+00      -1.333e+01       5.150e-01          -0.178          -0.132          -0.975       1.303e-02         -0.2416
  50       6.245e+00      -1.332e+01       5.353e-01          -0.374          -0.217          -0.902       8.759e-03         -0.1630
  51       6.207e+00      -1.332e+01       5.644e-01          -0.805          -0.394          -0.443       5.893e-03          0.5846
  52       6.207e+00      -1.332e+01       5.988e-01          -0.804          -0.353           0.478       5.852e-03          0.2011
  53       6.245e+00      -1.332e+01       6.279e-01          -0.377          -0.139           0.916       8.759e-03         -0.7018
  54       6.321e+00      -1.332e+01       6.484e-01          -0.180          -0.048           0.983       1.302e-02         -0.5416
  55       6.428e+00      -1.332e+01       6.628e-01          -0.097          -0.011           0.995       1.691e-02         -0.4008
  56       6.562e+00      -1.332e+01       6.720e-01          -0.044           0.011           0.999       1.990e-02         -0.3299
  57       6.713e+00      -1.332e+01       6.754e-01          -0.003           0.027           1.000       2.180e-02         -0.2924
  58       6.874e+00      -1.332e+01       6.727e-01           0.036           0.041           0.999       2.246e-02         -0.2748
  59       7.036e+00      -1.332e+01       6.635e-01           0.079           0.056           0.995       2.187e-02         -0.2665
  60       7.187e+00      -1.332e+01       6.476e-01           0.132           0.072           0.989       2.007e-02         -0.2522
  61       7.321e+00      -1.332e+01       6.261e-01           0.190           0.089           0.978       1.714e-02         -0.2264
  62       7.428e+00      -1.332e+01       6.027e-01           0.243           0.103           0.964       1.318e-02         -0.1792
  63       7.504e+00      -1.332e+01       5.825e-01           0.281           0.112           0.953       8.324e-03         -0.1467
  64       7.542e+00      -1.332e+01       5.688e-01           0.465           0.153           0.872       3.086e-03          0.0230
Strip 3
  65       7.498e+00      -1.314e+01       5.557e-01          -0.063          -0.062          -0.996       4.639e-03          0.1107
  66       7.458e+00      -1.314e+01       5.623e-01          -0.196          -0.093          -0.976       1.391e-02          0.2793
  67       7.380e+00      -1.314e+01       5.702e-01          -0.039          -0.054          -0.998       2.183e-02          0.3736
  68       7.270e+00      -1.314e+01       5.643e-01           0.122          -0.011          -0.992       2.897e-02          0.3275
  69       7.132e+00      -1.314e+01       5.406e-01           0.209           0.015          -0.978       3.483e-02          0.1796
  70       6.976e+00      -1.314e+01       5.092e-01           0.185           0.007          -0.983       3.800e-02         -0.0403
  71       6.810e+00      -1.314e+01       4.863e-01           0.089          -0.026          -0.996       3.859e-02         -0.1982
  72       6.644e+00      -1.314e+01       4.780e-01           0.010          -0.055          -0.998       3.732e-02         -0.2323
  73       6.488e+00      -1.314e+01       4.805e-01          -0.045          -0.077          -0.996       3.409e-02         -0.2266
  74       6.350e+00      -1.314e+01       4.901e-01          -0.099          -0.099          -0.990       2.895e-02         -0.2182
  75       6.240e+00      -1.314e+01       5.050e-01          -0.178          -0.132          -0.975       2.228e-02         -0.2128
  76       6.162e+00      -1.314e+01       5.259e-01          -0.374          -0.217          -0.902       1.497e-02         -0.0879
  77       6.122e+00      -1.314e+01       5.559e-01          -0.805          -0.394          -0.444       1.007e-02          0.6791
  78       6.122e+00      -1.314e+01       5.913e-01          -0.804          -0.353           0.478       9.998e-03          0.2171
  79       6.162e+00      -1.314e+01       6.213e-01          -0.377          -0.139           0.916       1.496e-02         -0.7513
  80       6.240e+00      -1.314e+01       6.424e-01          -0.180          -0.048           0.983       2.225e-02         -0.6058
  81       6.350e+00      -1.314e+01       6.573e-01          -0.097          -0.011           0.995       2.889e-02         -0.4776
  82       6.488e+00      -1.314e+01       6.667e-01          -0.044           0.011           0.999       3.402e-02         -0.4084
  83       6.644e+00      -1.314e+01       6.702e-01          -0.003           0.027           1.000       3.725e-02         -0.3657
  84       6.810e+00      -1.314e+01       6.675e-01           0.036           0.041           0.999       3.839e-02         -0.3422
  85       6.976e+00      -1.314e+01       6.580e-01           0.079           0.056           0.995       3.737e-02         -0.3256
  86       7.132e+00      -1.314e+01       6.416e-01           0.132           0.072           0.989       3.429e-02         -0.2931
  87       7.270e+00      -1.314e+01       6.195e-01           0.190           0.089           0.978       2.929e-02         -0.2345
  88       7.380e+00      -1.314e+01       5.953e-01           0.243           0.103           0.964       2.253e-02         -0.1449
  89       7.458e+00      -1.314e+01       5.746e-01           0.281           0.112           0.953       1.423e-02         -0.0707
  90       7.498e+00      -1.314e+01       5.604e-01           0.465           0.153           0.872       5.275e-03          0.1095
Strip 4
  91       7.432e+00      -1.287e+01       5.430e-01          -0.063          -0.062          -0.996       6.732e-03          0.1292
  92       7.390e+00      -1.287e+01       5.499e-01          -0.196          -0.093          -0.976       2.018e-02          0.3007
  93       7.309e+00      -1.287e+01       5.581e-01          -0.039          -0.054          -0.998       3.168e-02          0.3956
  94       7.193e+00      -1.287e+01       5.520e-01           0.122          -0.011          -0.992       4.204e-02          0.3457
  95       7.050e+00      -1.287e+01       5.272e-01           0.209           0.015          -0.978       5.053e-02          0.1906
  96       6.887e+00      -1.287e+01       4.945e-01           0.185           0.008          -0.983       5.514e-02         -0.0389
  97       6.714e+00      -1.287e+01       4.706e-01           0.089          -0.026          -0.996       5.598e-02         -0.2047
  98       6.541e+00      -1.287e+01       4.619e-01           0.010          -0.055          -0.998       5.415e-02         -0.2390
  99       6.378e+00      -1.287e+01       4.645e-01          -0.045          -0.077          -0.996       4.946e-02         -0.2250
 100       6.234e+00      -1.287e+01       4.746e-01          -0.099          -0.099          -0.990       4.202e-02         -0.2037
 101       6.118e+00      -1.287e+01       4.901e-01          -0.178          -0.132          -0.975       3.233e-02         -0.1851
 102       6.037e+00      -1.287e+01       5.120e-01          -0.374          -0.217          -0.902       2.173e-02         -0.0444
 103       5.996e+00      -1.287e+01       5.433e-01          -0.805          -0.394          -0.445       1.462e-02          0.7110
 104       5.996e+00      -1.287e+01       5.802e-01          -0.805          -0.354           0.477       1.450e-02          0.1954
 105       6.037e+00      -1.287e+01       6.115e-01          -0.377          -0.139           0.916       2.171e-02         -0.7952
 106       6.118e+00      -1.286e+01       6.335e-01          -0.180          -0.048           0.983       3.227e-02         -0.6437
 107       6.234e+00      -1.286e+01       6.491e-01          -0.097          -0.011           0.995       4.192e-02         -0.5192
 108       6.378e+00      -1.286e+01       6.589e-01          -0.044           0.011           0.999       4.935e-02         -0.4576
 109       6.541e+00      -1.286e+01       6.626e-01          -0.003           0.027           1.000       5.405e-02         -0.4190
 110       6.714e+00      -1.286e+01       6.597e-01           0.036           0.041           0.999       5.570e-02         -0.3948
 111       6.887e+00      -1.286e+01       6.498e-01           0.079           0.056           0.995       5.423e-02         -0.3729
 112       7.050e+00      -1.286e+01       6.327e-01           0.132           0.072           0.989       4.976e-02         -0.3302
 113       7.193e+00      -1.287e+01       6.096e-01           0.190           0.089           0.978       4.251e-02         -0.2575
 114       7.309e+00      -1.287e+01       5.844e-01           0.243           0.103           0.964       3.270e-02         -0.1521
 115       7.390e+00      -1.287e+01       5.627e-01           0.281           0.112           0.953       2.065e-02         -0.0628
 116       7.432e+00      -1.287e+01       5.480e-01           0.465           0.153           0.872       7.656e-03          0.1218
Strip 5
 117       7.344e+00      -1.251e+01       5.263e-01          -0.063          -0.062          -0.996       9.050e-03          0.1329
 118       7.300e+00      -1.251e+01       5.335e-01          -0.196          -0.093          -0.976       2.713e-02          0.3060
 119       7.214e+00      -1.251e+01       5.422e-01          -0.039          -0.054          -0.998       4.259e-02          0.4020
 120       7.092e+00      -1.251e+01       5.357e-01           0.123          -0.011          -0.992       5.650e-02          0.3517
 121       6.941e+00      -1.251e+01       5.096e-01           0.209           0.015          -0.978       6.792e-02          0.1953
 122       6.769e+00      -1.251e+01       4.751e-01           0.185           0.008          -0.983       7.411e-02         -0.0357
 123       6.586e+00      -1.251e+01       4.498e-01           0.089          -0.026          -0.996       7.525e-02         -0.2019
 124       6.404e+00      -1.251e+01       4.406e-01           0.010          -0.055          -0.998       7.279e-02         -0.2340
 125       6.232e+00      -1.251e+01       4.434e-01          -0.045          -0.077          -0.996       6.649e-02         -0.2160
 126       6.080e+00      -1.251e+01       4.540e-01          -0.099          -0.099          -0.990       5.649e-02         -0.1903
 127       5.958e+00      -1.251e+01       4.704e-01          -0.177          -0.132          -0.975       4.347e-02         -0.1666
 128       5.873e+00      -1.251e+01       4.935e-01          -0.374          -0.217          -0.902       2.923e-02         -0.0174
 129       5.829e+00      -1.251e+01       5.265e-01          -0.804          -0.393          -0.446       1.967e-02          0.7264
 130       5.829e+00      -1.251e+01       5.655e-01          -0.805          -0.354           0.476       1.948e-02          0.1731
 131       5.873e+00      -1.251e+01       5.985e-01          -0.377          -0.139           0.916       2.916e-02         -0.8298
 132       5.958e+00      -1.250e+01       6.217e-01          -0.180          -0.048           0.983       4.337e-02         -0.6699
 133       6.080e+00      -1.250e+01       6.381e-01          -0.097          -0.011           0.995       5.634e-02         -0.5442
 134       6.232e+00      -1.250e+01       6.485e-01          -0.044           0.011           0.999       6.634e-02         -0.4850
 135       6.404e+00      -1.250e+01       6.524e-01          -0.003           0.027           1.000       7.266e-02         -0.4495
 136       6.586e+00      -1.250e+01       6.493e-01           0.036           0.041           0.999       7.488e-02         -0.4267
 137       6.769e+00      -1.250e+01       6.389e-01           0.079           0.056           0.995       7.290e-02         -0.4032
 138       6.941e+00      -1.250e+01       6.209e-01           0.132           0.072           0.989       6.691e-02         -0.3556
 139       7.092e+00      -1.251e+01       5.965e-01           0.190           0.089           0.978       5.716e-02         -0.2754
 140       7.214e+00      -1.251e+01       5.699e-01           0.243           0.103           0.965       4.396e-02         -0.1623
 141       7.300e+00      -1.251e+01       5.470e-01           0.281           0.112           0.953       2.776e-02         -0.0664
 142       7.344e+00      -1.251e+01       5.315e-01           0.465           0.153           0.872       1.029e-02          0.1203
Strip 6
 143       7.235e+00      -1.206e+01       5.055e-01          -0.063          -0.062          -0.996       1.164e-02          0.1333
 144       7.189e+00      -1.206e+01       5.133e-01          -0.196          -0.093          -0.976       3.491e-02          0.3075
 145       7.097e+00      -1.206e+01       5.225e-01          -0.039          -0.054          -0.998       5.478e-02          0.4044
 146       6.968e+00      -1.206e+01       5.156e-01           0.123          -0.011          -0.992       7.268e-02          0.3546
 147       6.806e+00      -1.206e+01       4.877e-01           0.209           0.015          -0.978       8.735e-02          0.1984
 148       6.623e+00      -1.206e+01       4.510e-01           0.185           0.008          -0.983       9.531e-02         -0.0321
 149       6.429e+00      -1.206e+01       4.241e-01           0.089          -0.026          -0.996       9.679e-02         -0.1972
 150       6.234e+00      -1.207e+01       4.143e-01           0.010          -0.055          -0.998       9.364e-02         -0.2279
 151       6.051e+00      -1.207e+01       4.173e-01          -0.045          -0.077          -0.996       8.554e-02         -0.2083
 152       5.890e+00      -1.206e+01       4.286e-01          -0.099          -0.099          -0.990       7.268e-02         -0.1812
 153       5.760e+00      -1.206e+01       4.461e-01          -0.177          -0.132          -0.975       5.594e-02         -0.1552
 154       5.669e+00      -1.206e+01       4.706e-01          -0.373          -0.217          -0.902       3.762e-02         -0.0014
 155       5.622e+00      -1.206e+01       5.058e-01          -0.804          -0.393          -0.446       2.531e-02          0.7343
 156       5.622e+00      -1.206e+01       5.473e-01          -0.806          -0.354           0.475       2.505e-02          0.1577
 157       5.669e+00      -1.206e+01       5.824e-01          -0.377          -0.139           0.916       3.750e-02         -0.8530
 158       5.760e+00      -1.206e+01       6.072e-01          -0.180          -0.048           0.983       5.578e-02         -0.6866
 159       5.890e+00      -1.206e+01       6.247e-01          -0.097          -0.011           0.995       7.247e-02         -0.5590
 160       6.051e+00      -1.206e+01       6.357e-01          -0.044           0.011           0.999       8.534e-02         -0.5003
 161       6.234e+00      -1.206e+01       6.398e-01          -0.003           0.027           1.000       9.347e-02         -0.4660
 162       6.429e+00      -1.206e+01       6.366e-01           0.036           0.041           0.999       9.633e-02         -0.4439
 163       6.623e+00      -1.206e+01       6.255e-01           0.079           0.056           0.995       9.379e-02         -0.4199
 164       6.806e+00      -1.206e+01       6.063e-01           0.132           0.072           0.989       8.608e-02         -0.3701
 165       6.968e+00      -1.206e+01       5.803e-01           0.190           0.089           0.978       7.354e-02         -0.2864
 166       7.097e+00      -1.206e+01       5.520e-01           0.243           0.103           0.965       5.657e-02         -0.1695
 167       7.189e+00      -1.206e+01       5.276e-01           0.281           0.112           0.953       3.572e-02         -0.0704
 168       7.235e+00      -1.206e+01       5.111e-01           0.465           0.153           0.872       1.325e-02          0.1173
Strip 7
 169       7.107e+00      -1.153e+01       4.809e-01          -0.063          -0.062          -0.996       1.455e-02          0.1333
 170       7.057e+00      -1.153e+01       4.892e-01          -0.196          -0.093          -0.976       4.362e-02          0.3082
 171       6.959e+00      -1.153e+01       4.991e-01          -0.039          -0.054          -0.998       6.845e-02          0.4058
 172       6.820e+00      -1.153e+01       4.917e-01           0.123          -0.011          -0.992       9.080e-02          0.3564
 173       6.647e+00      -1.153e+01       4.619e-01           0.209           0.015          -0.978       1.091e-01          0.2006
 174       6.450e+00      -1.154e+01       4.225e-01           0.185           0.008          -0.983       1.191e-01         -0.0295
 175       6.242e+00      -1.154e+01       3.937e-01           0.089          -0.026          -0.996       1.209e-01         -0.1939
 176       6.034e+00      -1.154e+01       3.832e-01           0.010          -0.055          -0.998       1.170e-01         -0.2239
 177       5.837e+00      -1.154e+01       3.863e-01          -0.045          -0.077          -0.996       1.069e-01         -0.2038
 178       5.664e+00      -1.154e+01       3.984e-01          -0.099          -0.099          -0.990       9.082e-02         -0.1763
 179       5.525e+00      -1.154e+01       4.172e-01          -0.177          -0.132          -0.975       6.991e-02         -0.1495
 180       5.428e+00      -1.154e+01       4.435e-01          -0.373          -0.217          -0.902       4.703e-02          0.0063
 181       5.377e+00      -1.153e+01       4.812e-01          -0.803          -0.393          -0.448       3.165e-02          0.7376
 182       5.377e+00      -1.153e+01       5.257e-01          -0.806          -0.354           0.474       3.128e-02          0.1505
 183       5.428e+00      -1.153e+01       5.634e-01          -0.377          -0.140           0.915       4.683e-02         -0.8650
 184       5.525e+00      -1.153e+01       5.899e-01          -0.180          -0.048           0.983       6.968e-02         -0.6953
 185       5.664e+00      -1.153e+01       6.087e-01          -0.097          -0.011           0.995       9.053e-02         -0.5668
 186       5.837e+00      -1.153e+01       6.205e-01          -0.044           0.011           0.999       1.066e-01         -0.5081
 187       6.034e+00      -1.153e+01       6.250e-01          -0.003           0.027           1.000       1.168e-01         -0.4744
 188       6.242e+00      -1.153e+01       6.215e-01           0.036           0.041           0.999       1.204e-01         -0.4527
 189       6.450e+00      -1.153e+01       6.095e-01           0.079           0.056           0.995       1.172e-01         -0.4284
 190       6.647e+00      -1.153e+01       5.889e-01           0.132           0.072           0.989       1.076e-01         -0.3775
 191       6.820e+00      -1.153e+01       5.612e-01           0.190           0.089           0.978       9.190e-02         -0.2922
 192       6.959e+00      -1.153e+01       5.308e-01           0.243           0.103           0.965       7.069e-02         -0.1737
 193       7.057e+00      -1.153e+01       5.046e-01           0.281           0.112           0.953       4.464e-02         -0.0730
 194       7.107e+00      -1.153e+01       4.869e-01           0.464           0.153           0.872       1.656e-02          0.1152
Strip 8
 195       6.959e+00      -1.093e+01       4.527e-01          -0.063          -0.062          -0.996       1.779e-02          0.1332
 196       6.905e+00      -1.093e+01       4.616e-01          -0.196          -0.093          -0.976       5.335e-02          0.3086
 197       6.800e+00      -1.093e+01       4.723e-01          -0.039          -0.054          -0.998       8.371e-02          0.4066
 198       6.650e+00      -1.093e+01       4.643e-01           0.123          -0.011          -0.992       1.110e-01          0.3575
 199       6.464e+00      -1.093e+01       4.322e-01           0.209           0.015          -0.978       1.334e-01          0.2019
 200       6.252e+00      -1.093e+01       3.897e-01           0.185           0.008          -0.983       1.456e-01         -0.0280
 201       6.027e+00      -1.093e+01       3.587e-01           0.089          -0.026          -0.996       1.478e-01         -0.1922
 202       5.803e+00      -1.093e+01       3.473e-01           0.010          -0.055          -0.998       1.431e-01         -0.2220
 203       5.591e+00      -1.093e+01       3.507e-01          -0.045          -0.077          -0.996       1.307e-01         -0.2020
 204       5.405e+00      -1.093e+01       3.638e-01          -0.099          -0.099          -0.990       1.111e-01         -0.1747
 205       5.255e+00      -1.093e+01       3.840e-01          -0.177          -0.132          -0.975       8.551e-02         -0.1481
 206       5.150e+00      -1.093e+01       4.123e-01          -0.373          -0.217          -0.902       5.754e-02          0.0075
 207       5.096e+00      -1.093e+01       4.530e-01          -0.803          -0.393          -0.449       3.872e-02          0.7378
 208       5.096e+00      -1.093e+01       5.009e-01          -0.807          -0.355           0.473       3.823e-02          0.1509
 209       5.150e+00      -1.092e+01       5.415e-01          -0.378          -0.140           0.915       5.723e-02         -0.8674
 210       5.255e+00      -1.092e+01       5.701e-01          -0.180          -0.048           0.983       8.518e-02         -0.6977
 211       5.405e+00      -1.092e+01       5.903e-01          -0.097          -0.011           0.995       1.107e-01         -0.5695
 212       5.591e+00      -1.092e+01       6.031e-01          -0.044           0.011           0.999       1.304e-01         -0.5113
 213       5.803e+00      -1.092e+01       6.079e-01          -0.003           0.027           1.000       1.428e-01         -0.4780
 214       6.027e+00      -1.092e+01       6.041e-01           0.036           0.041           0.999       1.472e-01         -0.4566
 215       6.252e+00      -1.092e+01       5.912e-01           0.079           0.056           0.995       1.433e-01         -0.4323
 216       6.464e+00      -1.092e+01       5.691e-01           0.132           0.072           0.989       1.316e-01         -0.3809
 217       6.650e+00      -1.092e+01       5.391e-01           0.190           0.089           0.978       1.124e-01         -0.2949
 218       6.800e+00      -1.093e+01       5.064e-01           0.243           0.103           0.965       8.646e-02         -0.1756
 219       6.905e+00      -1.093e+01       4.782e-01           0.280           0.112           0.953       5.460e-02         -0.0743
 220       6.959e+00      -1.093e+01       4.591e-01           0.464           0.153           0.872       2.025e-02          0.1139
Strip 9
 221       6.793e+00      -1.025e+01       4.210e-01          -0.063          -0.062          -0.996       2.138e-02          0.1331
 222       6.735e+00      -1.025e+01       4.306e-01          -0.196          -0.093          -0.976       6.413e-02          0.3087
 223       6.621e+00      -1.025e+01       4.421e-01          -0.039          -0.054          -0.998       1.006e-01          0.4071
 224       6.459e+00      -1.025e+01       4.335e-01           0.123          -0.011          -0.992       1.334e-01          0.3581
 225       6.258e+00      -1.025e+01       3.988e-01           0.209           0.015          -0.978       1.603e-01          0.2025
 226       6.029e+00      -1.025e+01       3.529e-01           0.185           0.008          -0.983       1.749e-01         -0.0276
 227       5.787e+00      -1.025e+01       3.194e-01           0.089          -0.026          -0.996       1.777e-01         -0.1919
 228       5.544e+00      -1.025e+01       3.071e-01           0.010          -0.055          -0.998       1.719e-01         -0.2220
 229       5.315e+00      -1.025e+01       3.108e-01          -0.045          -0.077          -0.996       1.571e-01         -0.2023
 230       5.114e+00      -1.025e+01       3.249e-01          -0.099          -0.099          -0.990       1.335e-01         -0.1756
 231       4.952e+00      -1.025e+01       3.468e-01          -0.177          -0.132          -0.975       1.028e-01         -0.1500
 232       4.839e+00      -1.025e+01       3.774e-01          -0.373          -0.217          -0.902       6.918e-02          0.0039
 233       4.780e+00      -1.025e+01       4.213e-01          -0.802          -0.393          -0.449       4.656e-02          0.7358
 234       4.780e+00      -1.024e+01       4.731e-01          -0.807          -0.355           0.472       4.591e-02          0.1571
 235       4.839e+00      -1.024e+01       5.170e-01          -0.378          -0.140           0.915       6.874e-02         -0.8624
 236       4.952e+00      -1.024e+01       5.479e-01          -0.180          -0.048           0.983       1.023e-01         -0.6954
 237       5.114e+00      -1.024e+01       5.697e-01          -0.097          -0.011           0.995       1.330e-01         -0.5687
 238       5.315e+00      -1.024e+01       5.835e-01          -0.044           0.011           0.999       1.567e-01         -0.5114
 239       5.544e+00      -1.024e+01       5.886e-01          -0.003           0.027           1.000       1.716e-01         -0.4787
 240       5.787e+00      -1.024e+01       5.846e-01           0.036           0.041           0.999       1.769e-01         -0.4576
 241       6.029e+00      -1.024e+01       5.707e-01           0.079           0.056           0.995       1.723e-01         -0.4335
 242       6.258e+00      -1.024e+01       5.467e-01           0.132           0.072           0.989       1.581e-01         -0.3821
 243       6.459e+00      -1.024e+01       5.144e-01           0.190           0.089           0.978       1.351e-01         -0.2959
 244       6.621e+00      -1.024e+01       4.790e-01           0.243           0.103           0.965       1.039e-01         -0.1765
 245       6.735e+00      -1.024e+01       4.486e-01           0.280           0.112           0.953       6.563e-02         -0.0750
 246       6.793e+00      -1.025e+01       4.279e-01           0.464           0.153           0.872       2.435e-02          0.1132
Strip 10
 247       6.610e+00      -9.494e+00       3.860e-01          -0.063          -0.062          -0.996       2.531e-02          0.1330
 248       6.547e+00      -9.494e+00       3.965e-01          -0.196          -0.093          -0.976       7.594e-02          0.3088
 249       6.424e+00      -9.494e+00       4.089e-01          -0.039          -0.054          -0.998       1.191e-01          0.4073
 250       6.248e+00      -9.494e+00       3.995e-01           0.123          -0.011          -0.992       1.579e-01          0.3583
 251       6.031e+00      -9.494e+00       3.620e-01           0.209           0.015          -0.978       1.897e-01          0.2026
 252       5.783e+00      -9.495e+00       3.123e-01           0.185           0.008          -0.983       2.070e-01         -0.0279
 253       5.521e+00      -9.496e+00       2.760e-01           0.089          -0.026          -0.996       2.103e-01         -0.1927
 254       5.258e+00      -9.496e+00       2.628e-01           0.010          -0.055          -0.998       2.036e-01         -0.2232
 255       5.011e+00      -9.496e+00       2.668e-01          -0.045          -0.077          -0.996       1.860e-01         -0.2041
 256       4.793e+00      -9.496e+00       2.820e-01          -0.099          -0.099          -0.990       1.581e-01         -0.1784
 257       4.618e+00      -9.495e+00       3.057e-01          -0.177          -0.132          -0.975       1.217e-01         -0.1546
 258       4.495e+00      -9.495e+00       3.388e-01          -0.373          -0.217          -0.902       8.195e-02         -0.0036
 259       4.432e+00      -9.494e+00       3.864e-01          -0.802          -0.393          -0.450       5.516e-02          0.7321
 260       4.432e+00      -9.493e+00       4.424e-01          -0.807          -0.355           0.471       5.433e-02          0.1680
 261       4.495e+00      -9.492e+00       4.899e-01          -0.378          -0.140           0.915       8.135e-02         -0.8517
 262       4.618e+00      -9.491e+00       5.233e-01          -0.180          -0.048           0.982       1.211e-01         -0.6898
 263       4.793e+00      -9.491e+00       5.469e-01          -0.097          -0.011           0.995       1.575e-01         -0.5653
 264       5.011e+00      -9.491e+00       5.619e-01          -0.044           0.011           0.999       1.855e-01         -0.5091
 265       5.258e+00      -9.491e+00       5.675e-01          -0.003           0.027           1.000       2.032e-01         -0.4773
 266       5.521e+00      -9.491e+00       5.630e-01           0.036           0.041           0.999       2.094e-01         -0.4569
 267       5.783e+00      -9.491e+00       5.480e-01           0.079           0.056           0.995       2.040e-01         -0.4331
 268       6.031e+00      -9.491e+00       5.221e-01           0.132           0.072           0.989       1.872e-01         -0.3820
 269       6.248e+00      -9.492e+00       4.871e-01           0.190           0.089           0.978       1.600e-01         -0.2959
 270       6.424e+00      -9.493e+00       4.488e-01           0.243           0.103           0.965       1.231e-01         -0.1765
 271       6.547e+00      -9.493e+00       4.159e-01           0.280           0.112           0.953       7.772e-02         -0.0751
 272       6.610e+00      -9.494e+00       3.935e-01           0.464           0.153           0.873       2.884e-02          0.1129
Strip 11
 273       6.411e+00      -8.678e+00       3.480e-01          -0.063          -0.062          -0.996       2.957e-02          0.1329
 274       6.343e+00      -8.677e+00       3.593e-01          -0.196          -0.093          -0.976       8.872e-02          0.3088
 275       6.210e+00      -8.677e+00       3.728e-01          -0.039          -0.054          -0.998       1.391e-01          0.4074
 276       6.020e+00      -8.677e+00       3.627e-01           0.123          -0.011          -0.992       1.845e-01          0.3583
 277       5.784e+00      -8.678e+00       3.220e-01           0.209           0.015          -0.978       2.216e-01          0.2022
 278       5.517e+00      -8.679e+00       2.682e-01           0.185           0.008          -0.983       2.418e-01         -0.0288
 279       5.232e+00      -8.679e+00       2.289e-01           0.089          -0.026          -0.996       2.457e-01         -0.1943
 280       4.948e+00      -8.680e+00       2.146e-01           0.010          -0.055          -0.998       2.378e-01         -0.2255
 281       4.680e+00      -8.680e+00       2.189e-01          -0.045          -0.077          -0.996       2.173e-01         -0.2071
 282       4.445e+00      -8.679e+00       2.354e-01          -0.099          -0.099          -0.990       1.847e-01         -0.1826
 283       4.255e+00      -8.679e+00       2.610e-01          -0.177          -0.132          -0.975       1.422e-01         -0.1610
 284       4.122e+00      -8.678e+00       2.969e-01          -0.372          -0.217          -0.902       9.577e-02         -0.0143
 285       4.053e+00      -8.678e+00       3.484e-01          -0.801          -0.392          -0.451       6.446e-02          0.7269
 286       4.053e+00      -8.677e+00       4.091e-01          -0.808          -0.355           0.470       6.344e-02          0.1825
 287       4.122e+00      -8.676e+00       4.605e-01          -0.378          -0.140           0.915       9.498e-02         -0.8365
 288       4.255e+00      -8.675e+00       4.967e-01          -0.180          -0.048           0.982       1.415e-01         -0.6811
 289       4.445e+00      -8.675e+00       5.222e-01          -0.097          -0.011           0.995       1.839e-01         -0.5597
 290       4.680e+00      -8.675e+00       5.384e-01          -0.044           0.011           0.999       2.166e-01         -0.5054
 291       4.948e+00      -8.674e+00       5.445e-01          -0.003           0.027           1.000       2.373e-01         -0.4746
 292       5.232e+00      -8.675e+00       5.397e-01           0.036           0.041           0.999       2.447e-01         -0.4549
 293       5.517e+00      -8.675e+00       5.234e-01           0.079           0.056           0.995       2.383e-01         -0.4317
 294       5.784e+00      -8.675e+00       4.953e-01           0.132           0.072           0.989       2.187e-01         -0.3810
 295       6.020e+00      -8.676e+00       4.574e-01           0.189           0.089           0.978       1.869e-01         -0.2953
 296       6.210e+00      -8.676e+00       4.159e-01           0.243           0.103           0.965       1.438e-01         -0.1762
 297       6.343e+00      -8.677e+00       3.803e-01           0.280           0.112           0.953       9.080e-02         -0.0749
 298       6.411e+00      -8.677e+00       3.561e-01           0.464           0.153           0.873       3.370e-02          0.1127
Strip 12
 299       6.198e+00      -7.802e+00       3.072e-01          -0.063          -0.062          -0.996       3.412e-02          0.1328
 300       6.124e+00      -7.802e+00       3.195e-01          -0.196          -0.093          -0.976       1.024e-01          0.3087
 301       5.980e+00      -7.801e+00       3.340e-01          -0.039          -0.054          -0.998       1.605e-01          0.4073
 302       5.775e+00      -7.802e+00       3.231e-01           0.123          -0.011          -0.992       2.128e-01          0.3582
 303       5.520e+00      -7.802e+00       2.791e-01           0.209           0.015          -0.978       2.556e-01          0.2017
 304       5.230e+00      -7.803e+00       2.209e-01           0.185           0.008          -0.983       2.789e-01         -0.0302
 305       4.923e+00      -7.803e+00       1.784e-01           0.089          -0.026          -0.996       2.834e-01         -0.1966
 306       4.615e+00      -7.804e+00       1.629e-01           0.010          -0.055          -0.998       2.743e-01         -0.2285
 307       4.326e+00      -7.804e+00       1.676e-01          -0.045          -0.077          -0.996       2.507e-01         -0.2111
 308       4.071e+00      -7.803e+00       1.855e-01          -0.099          -0.099          -0.990       2.131e-01         -0.1880
 309       3.865e+00      -7.803e+00       2.132e-01          -0.177          -0.132          -0.975       1.641e-01         -0.1691
 310       3.722e+00      -7.803e+00       2.520e-01          -0.372          -0.216          -0.903       1.105e-01         -0.0273
 311       3.647e+00      -7.802e+00       3.077e-01          -0.801          -0.392          -0.452       7.440e-02          0.7205
 312       3.647e+00      -7.801e+00       3.733e-01          -0.808          -0.355           0.469       7.315e-02          0.1999
 313       3.722e+00      -7.800e+00       4.289e-01          -0.378          -0.140           0.915       1.095e-01         -0.8173
 314       3.865e+00      -7.800e+00       4.681e-01          -0.180          -0.048           0.982       1.632e-01         -0.6703
 315       4.071e+00      -7.799e+00       4.957e-01          -0.097          -0.011           0.995       2.121e-01         -0.5527
 316       4.326e+00      -7.799e+00       5.133e-01          -0.044           0.011           0.999       2.499e-01         -0.5003
 317       4.615e+00      -7.799e+00       5.198e-01          -0.003           0.027           1.000       2.738e-01         -0.4708
 318       4.923e+00      -7.799e+00       5.146e-01           0.036           0.041           0.999       2.823e-01         -0.4520
 319       5.230e+00      -7.799e+00       4.970e-01           0.079           0.056           0.995       2.749e-01         -0.4295
 320       5.520e+00      -7.800e+00       4.666e-01           0.132           0.072           0.989       2.524e-01         -0.3794
 321       5.775e+00      -7.800e+00       4.256e-01           0.189           0.089           0.978       2.157e-01         -0.2942
 322       5.980e+00      -7.801e+00       3.807e-01           0.243           0.103           0.965       1.659e-01         -0.1756
 323       6.124e+00      -7.801e+00       3.422e-01           0.280           0.112           0.953       1.048e-01         -0.0747
 324       6.198e+00      -7.802e+00       3.160e-01           0.464           0.153           0.873       3.888e-02          0.1126
Strip 13
 325       5.972e+00      -6.873e+00       2.640e-01          -0.063          -0.062          -0.996       3.890e-02          0.1325
 326       5.892e+00      -6.873e+00       2.772e-01          -0.196          -0.093          -0.976       1.167e-01          0.3085
 327       5.736e+00      -6.873e+00       2.930e-01          -0.039          -0.054          -0.998       1.830e-01          0.4071
 328       5.515e+00      -6.873e+00       2.811e-01           0.123          -0.010          -0.992       2.426e-01          0.3579
 329       5.239e+00      -6.873e+00       2.336e-01           0.209           0.015          -0.978       2.914e-01          0.2009
 330       4.926e+00      -6.874e+00       1.708e-01           0.185           0.008          -0.983       3.179e-01         -0.0319
 331       4.594e+00      -6.874e+00       1.249e-01           0.089          -0.026          -0.996       3.231e-01         -0.1994
 332       4.262e+00      -6.874e+00       1.081e-01           0.010          -0.055          -0.998       3.127e-01         -0.2322
 333       3.950e+00      -6.874e+00       1.131e-01          -0.045          -0.077          -0.996       2.858e-01         -0.2159
 334       3.674e+00      -6.874e+00       1.325e-01          -0.099          -0.099          -0.990       2.430e-01         -0.1944
 335       3.452e+00      -6.874e+00       1.624e-01          -0.177          -0.132          -0.975       1.871e-01         -0.1787
 336       3.297e+00      -6.873e+00       2.043e-01          -0.372          -0.216          -0.903       1.261e-01         -0.0428
 337       3.217e+00      -6.873e+00       2.645e-01          -0.801          -0.392          -0.453       8.486e-02          0.7127
 338       3.217e+00      -6.872e+00       3.354e-01          -0.809          -0.356           0.469       8.337e-02          0.2197
 339       3.297e+00      -6.871e+00       3.954e-01          -0.379          -0.140           0.915       1.248e-01         -0.7948
 340       3.452e+00      -6.871e+00       4.378e-01          -0.180          -0.048           0.982       1.860e-01         -0.6573
 341       3.674e+00      -6.871e+00       4.676e-01          -0.097          -0.011           0.995       2.418e-01         -0.5442
 342       3.950e+00      -6.870e+00       4.865e-01          -0.044           0.011           0.999       2.849e-01         -0.4941
 343       4.262e+00      -6.870e+00       4.936e-01          -0.003           0.027           1.000       3.122e-01         -0.4661
 344       4.594e+00      -6.870e+00       4.880e-01           0.036           0.041           0.999       3.218e-01         -0.4485
 345       4.926e+00      -6.871e+00       4.690e-01           0.079           0.056           0.995       3.135e-01         -0.4268
 346       5.239e+00      -6.871e+00       4.362e-01           0.132           0.072           0.989       2.878e-01         -0.3773
 347       5.515e+00      -6.871e+00       3.919e-01           0.189           0.089           0.978       2.459e-01         -0.2928
 348       5.736e+00      -6.872e+00       3.434e-01           0.243           0.103           0.965       1.892e-01         -0.1748
 349       5.892e+00      -6.872e+00       3.018e-01           0.280           0.112           0.953       1.195e-01         -0.0744
 350       5.972e+00      -6.873e+00       2.735e-01           0.464           0.153           0.873       4.434e-02          0.1124
Strip 14
 351       5.734e+00      -5.897e+00       2.186e-01          -0.063          -0.062          -0.996       4.385e-02          0.1321
 352       5.648e+00      -5.897e+00       2.329e-01          -0.196          -0.093          -0.976       1.316e-01          0.3081
 353       5.480e+00      -5.897e+00       2.498e-01          -0.039          -0.054          -0.998       2.063e-01          0.4068
 354       5.241e+00      -5.897e+00       2.371e-01           0.123          -0.010          -0.992       2.734e-01          0.3574
 355       4.945e+00      -5.897e+00       1.858e-01           0.209           0.015          -0.978       3.284e-01          0.1999
 356       4.607e+00      -5.898e+00       1.181e-01           0.186           0.008          -0.983       3.584e-01         -0.0340
 357       4.249e+00      -5.898e+00       6.858e-02           0.089          -0.026          -0.996       3.642e-01         -0.2026
 358       3.891e+00      -5.898e+00       5.053e-02           0.010          -0.055          -0.998       3.526e-01         -0.2365
 359       3.554e+00      -5.898e+00       5.595e-02          -0.045          -0.077          -0.996       3.222e-01         -0.2214
 360       3.258e+00      -5.898e+00       7.676e-02          -0.099          -0.099          -0.990       2.739e-01         -0.2018
 361       3.018e+00      -5.898e+00       1.090e-01          -0.177          -0.132          -0.975       2.110e-01         -0.1895
 362       2.851e+00      -5.897e+00       1.542e-01          -0.372          -0.216          -0.903       1.422e-01         -0.0606
 363       2.765e+00      -5.897e+00       2.191e-01          -0.800          -0.392          -0.453       9.570e-02          0.7035
 364       2.765e+00      -5.896e+00       2.955e-01          -0.809          -0.356           0.468       9.395e-02          0.2418
 365       2.851e+00      -5.896e+00       3.603e-01          -0.379          -0.140           0.915       1.407e-01         -0.7687
 366       3.018e+00      -5.895e+00       4.059e-01          -0.180          -0.048           0.982       2.097e-01         -0.6423
 367       3.258e+00      -5.895e+00       4.381e-01          -0.097          -0.011           0.995       2.726e-01         -0.5343
 368       3.554e+00      -5.895e+00       4.585e-01          -0.044           0.011           0.999       3.212e-01         -0.4869
 369       3.891e+00      -5.895e+00       4.661e-01          -0.003           0.027           1.000       3.519e-01         -0.4606
 370       4.249e+00      -5.895e+00       4.601e-01           0.036           0.041           0.999       3.628e-01         -0.4442
 371       4.607e+00      -5.895e+00       4.396e-01           0.079           0.056           0.995       3.534e-01         -0.4235
 372       4.945e+00      -5.895e+00       4.042e-01           0.132           0.072           0.989       3.244e-01         -0.3750
 373       5.241e+00      -5.896e+00       3.565e-01           0.189           0.089           0.978       2.772e-01         -0.2912
 374       5.480e+00      -5.896e+00       3.042e-01           0.243           0.103           0.965       2.133e-01         -0.1740
 375       5.648e+00      -5.897e+00       2.593e-01           0.280           0.111           0.953       1.347e-01         -0.0742
 376       5.734e+00      -5.897e+00       2.288e-01           0.463           0.153           0.873       5.000e-02          0.1121
Strip 15
 377       5.487e+00      -4.881e+00       1.713e-01          -0.063          -0.062          -0.996       4.890e-02          0.1315
 378       5.394e+00      -4.881e+00       1.866e-01          -0.196          -0.093          -0.976       1.467e-01          0.3077
 379       5.214e+00      -4.880e+00       2.049e-01          -0.039          -0.054          -0.998       2.301e-01          0.4064
 380       4.957e+00      -4.880e+00       1.911e-01           0.123          -0.010          -0.992       3.049e-01          0.3568
 381       4.638e+00      -4.881e+00       1.361e-01           0.209           0.015          -0.978       3.662e-01          0.1987
 382       4.275e+00      -4.881e+00       6.322e-02           0.186           0.008          -0.983       3.995e-01         -0.0364
 383       3.890e+00      -4.882e+00       9.981e-03           0.089          -0.026          -0.996       4.060e-01         -0.2064
 384       3.505e+00      -4.882e+00      -9.435e-03           0.010          -0.055          -0.998       3.931e-01         -0.2415
 385       3.143e+00      -4.882e+00      -3.610e-03          -0.045          -0.077          -0.996       3.593e-01         -0.2276
 386       2.824e+00      -4.882e+00       1.878e-02          -0.099          -0.099          -0.990       3.055e-01         -0.2100
 387       2.567e+00      -4.881e+00       5.347e-02          -0.177          -0.132          -0.975       2.353e-01         -0.2017
 388       2.386e+00      -4.881e+00       1.021e-01          -0.372          -0.216          -0.903       1.586e-01         -0.0806
 389       2.294e+00      -4.881e+00       1.718e-01          -0.800          -0.392          -0.454       1.067e-01          0.6927
 390       2.294e+00      -4.880e+00       2.540e-01          -0.809          -0.356           0.468       1.047e-01          0.2663
 391       2.386e+00      -4.880e+00       3.237e-01          -0.379          -0.140           0.915       1.568e-01         -0.7392
 392       2.567e+00      -4.879e+00       3.727e-01          -0.180          -0.048           0.982       2.337e-01         -0.6249
 393       2.824e+00      -4.879e+00       4.074e-01          -0.097          -0.011           0.995       3.039e-01         -0.5227
 394       3.143e+00      -4.879e+00       4.293e-01          -0.044           0.011           0.999       3.581e-01         -0.4785
 395       3.505e+00      -4.879e+00       4.374e-01          -0.003           0.027           1.000       3.924e-01         -0.4543
 396       3.890e+00      -4.879e+00       4.310e-01           0.036           0.041           0.999       4.046e-01         -0.4393
 397       4.275e+00      -4.879e+00       4.089e-01           0.079           0.056           0.995       3.940e-01         -0.4199
 398       4.638e+00      -4.879e+00       3.709e-01           0.132           0.072           0.989       3.618e-01         -0.3723
 399       4.957e+00      -4.880e+00       3.195e-01           0.189           0.089           0.978       3.092e-01         -0.2895
 400       5.214e+00      -4.880e+00       2.633e-01           0.243           0.102           0.965       2.379e-01         -0.1731
 401       5.394e+00      -4.880e+00       2.151e-01           0.280           0.111           0.953       1.502e-01         -0.0741
 402       5.487e+00      -4.881e+00       1.823e-01           0.463           0.153           0.873       5.576e-02          0.1115
Strip 16
 403       5.231e+00      -3.831e+00       1.224e-01          -0.063          -0.062          -0.996       5.395e-02          0.1307
 404       5.132e+00      -3.831e+00       1.389e-01          -0.196          -0.093          -0.976       1.619e-01          0.3070
 405       4.939e+00      -3.831e+00       1.584e-01          -0.039          -0.054          -0.998       2.538e-01          0.4057
 406       4.663e+00      -3.831e+00       1.437e-01           0.123          -0.010          -0.992       3.363e-01          0.3559
 407       4.321e+00      -3.831e+00       8.466e-02           0.209           0.015          -0.978       4.039e-01          0.1970
 408       3.932e+00      -3.832e+00       6.545e-03           0.186           0.008          -0.983       4.407e-01         -0.0395
 409       3.519e+00      -3.832e+00      -5.054e-02           0.089          -0.026          -0.996       4.479e-01         -0.2110
 410       3.106e+00      -3.832e+00      -7.137e-02           0.010          -0.055          -0.998       4.337e-01         -0.2471
 411       2.718e+00      -3.832e+00      -6.512e-02          -0.045          -0.077          -0.996       3.964e-01         -0.2344
 412       2.376e+00      -3.832e+00      -4.111e-02          -0.099          -0.099          -0.990       3.370e-01         -0.2189
 413       2.100e+00      -3.832e+00      -3.905e-03          -0.177          -0.132          -0.975       2.596e-01         -0.2150
 414       1.907e+00      -3.831e+00       4.821e-02          -0.372          -0.216          -0.903       1.750e-01         -0.1030
 415       1.807e+00      -3.831e+00       1.230e-01          -0.800          -0.392          -0.454       1.178e-01          0.6800
 416       1.807e+00      -3.831e+00       2.112e-01          -0.809          -0.356           0.467       1.155e-01          0.2935
 417       1.907e+00      -3.830e+00       2.858e-01          -0.379          -0.140           0.915       1.729e-01         -0.7049
 418       2.100e+00      -3.830e+00       3.385e-01          -0.180          -0.048           0.982       2.578e-01         -0.6044
 419       2.376e+00      -3.830e+00       3.756e-01          -0.097          -0.011           0.995       3.353e-01         -0.5090
 420       2.718e+00      -3.830e+00       3.991e-01          -0.044           0.011           0.999       3.951e-01         -0.4686
 421       3.106e+00      -3.830e+00       4.079e-01          -0.003           0.027           1.000       4.329e-01         -0.4469
 422       3.519e+00      -3.830e+00       4.009e-01           0.036           0.041           0.999       4.463e-01         -0.4339
 423       3.932e+00      -3.830e+00       3.773e-01           0.079           0.056           0.995       4.347e-01         -0.4159
 424       4.321e+00      -3.830e+00       3.365e-01           0.132           0.072           0.989       3.991e-01         -0.3697
 425       4.663e+00      -3.830e+00       2.814e-01           0.189           0.089           0.978       3.411e-01         -0.2880
 426       4.939e+00      -3.831e+00       2.211e-01           0.243           0.102           0.965       2.624e-01         -0.1725
 427       5.132e+00      -3.831e+00       1.694e-01           0.280           0.111           0.953       1.657e-01         -0.0742
 428       5.231e+00      -3.831e+00       1.342e-01           0.463           0.153           0.873       6.152e-02          0.1107
Strip 17
 429       4.969e+00      -2.755e+00       7.237e-02          -0.063          -0.062          -0.996       5.890e-02          0.1291
 430       4.863e+00      -2.755e+00       8.997e-02          -0.196          -0.093          -0.976       1.768e-01          0.3058
 431       4.656e+00      -2.755e+00       1.109e-01          -0.039          -0.054          -0.998       2.771e-01          0.4046
 432       4.362e+00      -2.755e+00       9.515e-02           0.123          -0.010          -0.992       3.672e-01          0.3544
 433       3.996e+00      -2.755e+00       3.198e-02           0.209           0.015          -0.978       4.409e-01          0.1944
 434       3.580e+00      -2.756e+00      -5.154e-02           0.186           0.008          -0.983       4.811e-01         -0.0438
 435       3.139e+00      -2.756e+00      -1.126e-01           0.089          -0.026          -0.996       4.890e-01         -0.2166
 436       2.698e+00      -2.756e+00      -1.348e-01           0.010          -0.055          -0.998       4.735e-01         -0.2534
 437       2.282e+00      -2.756e+00      -1.282e-01          -0.045          -0.077          -0.996       4.328e-01         -0.2416
 438       1.916e+00      -2.756e+00      -1.025e-01          -0.099          -0.099          -0.990       3.680e-01         -0.2277
 439       1.621e+00      -2.756e+00      -6.271e-02          -0.177          -0.132          -0.975       2.835e-01         -0.2284
 440       1.415e+00      -2.756e+00      -6.988e-03          -0.372          -0.216          -0.903       1.911e-01         -0.1267
 441       1.308e+00      -2.755e+00       7.298e-02          -0.800          -0.392          -0.455       1.286e-01          0.6655
 442       1.308e+00      -2.755e+00       1.672e-01          -0.810          -0.356           0.467       1.261e-01          0.3246
 443       1.415e+00      -2.755e+00       2.471e-01          -0.379          -0.140           0.915       1.888e-01         -0.6631
 444       1.621e+00      -2.755e+00       3.033e-01          -0.180          -0.048           0.982       2.814e-01         -0.5786
 445       1.916e+00      -2.754e+00       3.430e-01          -0.097          -0.011           0.995       3.660e-01         -0.4915
 446       2.282e+00      -2.754e+00       3.682e-01          -0.044           0.011           0.999       4.313e-01         -0.4561
 447       2.698e+00      -2.754e+00       3.775e-01          -0.003           0.027           1.000       4.726e-01         -0.4381
 448       3.139e+00      -2.754e+00       3.701e-01           0.036           0.041           0.999       4.873e-01         -0.4279
 449       3.580e+00      -2.754e+00       3.449e-01           0.079           0.056           0.995       4.746e-01         -0.4123
 450       3.996e+00      -2.755e+00       3.012e-01           0.132           0.072           0.989       4.358e-01         -0.3678
 451       4.362e+00      -2.755e+00       2.424e-01           0.189           0.089           0.978       3.724e-01         -0.2873
 452       4.656e+00      -2.755e+00       1.779e-01           0.243           0.102           0.965       2.865e-01         -0.1727
 453       4.863e+00      -2.755e+00       1.226e-01           0.280           0.111           0.953       1.810e-01         -0.0752
 454       4.969e+00      -2.755e+00       8.497e-02           0.463           0.153           0.873       6.718e-02          0.1090
Strip 18
 455       4.703e+00      -1.661e+00       2.142e-02          -0.063          -0.062          -0.996       6.364e-02          0.1262
 456       4.590e+00      -1.661e+00       4.018e-02          -0.195          -0.093          -0.976       1.910e-01          0.3034
 457       4.369e+00      -1.661e+00       6.245e-02          -0.039          -0.054          -0.998       2.994e-01          0.4022
 458       4.055e+00      -1.661e+00       4.570e-02           0.123          -0.010          -0.992       3.967e-01          0.3510
 459       3.665e+00      -1.661e+00      -2.163e-02           0.209           0.015          -0.978       4.764e-01          0.1890
 460       3.222e+00      -1.661e+00      -1.106e-01           0.186           0.008          -0.983       5.199e-01         -0.0515
 461       2.752e+00      -1.661e+00      -1.757e-01           0.089          -0.026          -0.996       5.284e-01         -0.2248
 462       2.282e+00      -1.661e+00      -1.994e-01           0.010          -0.055          -0.998       5.116e-01         -0.2599
 463       1.839e+00      -1.661e+00      -1.923e-01          -0.045          -0.077          -0.996       4.677e-01         -0.2464
 464       1.449e+00      -1.661e+00      -1.649e-01          -0.099          -0.099          -0.990       3.976e-01         -0.2326
 465       1.135e+00      -1.661e+00      -1.225e-01          -0.177          -0.132          -0.975       3.063e-01         -0.2369
 466       9.146e-01      -1.661e+00      -6.316e-02          -0.372          -0.216          -0.903       2.065e-01         -0.1475
 467       8.012e-01      -1.661e+00       2.208e-02          -0.800          -0.392          -0.455       1.390e-01          0.6511
 468       8.012e-01      -1.661e+00       1.225e-01          -0.810          -0.356           0.466       1.362e-01          0.3635
 469       9.146e-01      -1.660e+00       2.076e-01          -0.379          -0.140           0.915       2.039e-01         -0.6061
 470       1.135e+00      -1.660e+00       2.676e-01          -0.180          -0.048           0.982       3.041e-01         -0.5408
 471       1.449e+00      -1.660e+00       3.099e-01          -0.097          -0.011           0.995       3.955e-01         -0.4654
 472       1.839e+00      -1.660e+00       3.367e-01          -0.044           0.011           0.999       4.661e-01         -0.4380
 473       2.282e+00      -1.660e+00       3.467e-01          -0.003           0.027           1.000       5.107e-01         -0.4265
 474       2.752e+00      -1.660e+00       3.388e-01           0.036           0.041           0.999       5.266e-01         -0.4219
 475       3.222e+00      -1.660e+00       3.119e-01           0.079           0.056           0.995       5.129e-01         -0.4107
 476       3.665e+00      -1.660e+00       2.654e-01           0.132           0.072           0.989       4.709e-01         -0.3691
 477       4.055e+00      -1.660e+00       2.026e-01           0.189           0.089           0.978       4.025e-01         -0.2898
 478       4.369e+00      -1.661e+00       1.339e-01           0.243           0.102           0.965       3.097e-01         -0.1755
 479       4.590e+00      -1.661e+00       7.496e-02           0.280           0.111           0.954       1.956e-01         -0.0785
 480       4.703e+00      -1.661e+00       3.486e-02           0.463           0.153           0.873       7.260e-02          0.1052
Strip 19
 481       4.434e+00      -5.548e-01      -3.005e-02          -0.063          -0.062          -0.996       6.808e-02          0.1211
 482       4.313e+00      -5.548e-01      -1.012e-02          -0.195          -0.093          -0.976       2.043e-01          0.2994
 483       4.079e+00      -5.548e-01       1.354e-02          -0.039          -0.054          -0.998       3.203e-01          0.3967
 484       3.746e+00      -5.548e-01      -4.252e-03           0.123          -0.010          -0.992       4.243e-01          0.3392
 485       3.331e+00      -5.549e-01      -7.578e-02           0.209           0.015          -0.978       5.096e-01          0.1681
 486       2.861e+00      -5.549e-01      -1.704e-01           0.186           0.008          -0.983       5.560e-01         -0.0760
 487       2.361e+00      -5.550e-01      -2.395e-01           0.089          -0.026          -0.996       5.652e-01         -0.2407
 488       1.861e+00      -5.550e-01      -2.647e-01           0.010          -0.055          -0.998       5.472e-01         -0.2610
 489       1.391e+00      -5.550e-01      -2.571e-01          -0.045          -0.077          -0.996       5.003e-01         -0.2337
 490       9.767e-01      -5.550e-01      -2.281e-01          -0.099          -0.099          -0.990       4.254e-01         -0.2096
 491       6.430e-01      -5.549e-01      -1.830e-01          -0.177          -0.132          -0.975       3.277e-01         -0.2101
 492       4.091e-01      -5.549e-01      -1.199e-01          -0.371          -0.216          -0.903       2.209e-01         -0.1374
 493       2.886e-01      -5.548e-01      -2.935e-02          -0.799          -0.392          -0.456       1.488e-01          0.6382
 494       2.886e-01      -5.548e-01       7.738e-02          -0.810          -0.356           0.466       1.456e-01          0.4262
 495       4.091e-01      -5.547e-01       1.678e-01          -0.379          -0.140           0.915       2.181e-01         -0.4877
 496       6.430e-01      -5.547e-01       2.315e-01          -0.180          -0.048           0.982       3.252e-01         -0.4541
 497       9.767e-01      -5.547e-01       2.765e-01          -0.097          -0.011           0.995       4.230e-01         -0.4075
 498       1.391e+00      -5.547e-01       3.049e-01          -0.044           0.011           0.999       4.985e-01         -0.4022
 499       1.861e+00      -5.547e-01       3.155e-01          -0.003           0.027           1.000       5.463e-01         -0.4078
 500       2.361e+00      -5.547e-01       3.071e-01           0.036           0.041           0.999       5.633e-01         -0.4182
 501       2.861e+00      -5.547e-01       2.785e-01           0.079           0.056           0.995       5.486e-01         -0.4197
 502       3.331e+00      -5.547e-01       2.291e-01           0.132           0.072           0.989       5.037e-01         -0.3857
 503       3.746e+00      -5.547e-01       1.625e-01           0.189           0.089           0.978       4.305e-01         -0.3073
 504       4.079e+00      -5.548e-01       8.947e-02           0.243           0.102           0.965       3.313e-01         -0.1896
 505       4.313e+00      -5.548e-01       2.683e-02           0.280           0.111           0.954       2.092e-01         -0.0891
 506       4.434e+00      -5.548e-01      -1.577e-02           0.463           0.153           0.873       7.767e-02          0.0964
Strip 20
 507       4.434e+00       5.548e-01      -3.005e-02          -0.063           0.062          -0.996       6.808e-02          0.1211
 508       4.313e+00       5.548e-01      -1.012e-02          -0.195           0.093          -0.976       2.043e-01          0.2994
 509       4.079e+00       5.548e-01       1.354e-02          -0.039           0.054          -0.998       3.203e-01          0.3967
 510       3.746e+00       5.548e-01      -4.252e-03           0.123           0.010          -0.992       4.243e-01          0.3392
 511       3.331e+00       5.549e-01      -7.578e-02           0.209          -0.015          -0.978       5.096e-01          0.1681
 512       2.861e+00       5.549e-01      -1.704e-01           0.186          -0.008          -0.983       5.560e-01         -0.0760
 513       2.361e+00       5.550e-01      -2.395e-01           0.089           0.026          -0.996       5.652e-01         -0.2407
 514       1.861e+00       5.550e-01      -2.647e-01           0.010           0.055          -0.998       5.472e-01         -0.2610
 515       1.391e+00       5.550e-01      -2.571e-01          -0.045           0.077          -0.996       5.003e-01         -0.2337
 516       9.767e-01       5.550e-01      -2.281e-01          -0.099           0.099          -0.990       4.254e-01         -0.2096
 517       6.430e-01       5.549e-01      -1.830e-01          -0.177           0.132          -0.975       3.277e-01         -0.2101
 518       4.091e-01       5.549e-01      -1.199e-01          -0.371           0.216          -0.903       2.209e-01         -0.1374
 519       2.886e-01       5.548e-01      -2.935e-02          -0.799           0.392          -0.456       1.488e-01          0.6382
 520       2.886e-01       5.548e-01       7.738e-02          -0.810           0.356           0.466       1.456e-01          0.4262
 521       4.091e-01       5.547e-01       1.678e-01          -0.379           0.140           0.915       2.181e-01         -0.4877
 522       6.430e-01       5.547e-01       2.315e-01          -0.180           0.048           0.982       3.252e-01         -0.4541
 523       9.767e-01       5.547e-01       2.765e-01          -0.097           0.011           0.995       4.230e-01         -0.4075
 524       1.391e+00       5.547e-01       3.049e-01          -0.044          -0.011           0.999       4.985e-01         -0.4022
 525       1.861e+00       5.547e-01       3.155e-01          -0.003          -0.027           1.000       5.463e-01         -0.4078
 526       2.361e+00       5.547e-01       3.071e-01           0.036          -0.041           0.999       5.633e-01         -0.4182
 527       2.861e+00       5.547e-01       2.785e-01           0.079          -0.056           0.995       5.486e-01         -0.4197
 528       3.331e+00       5.547e-01       2.291e-01           0.132          -0.072           0.989       5.037e-01         -0.3857
 529       3.746e+00       5.547e-01       1.625e-01           0.189          -0.089           0.978       4.305e-01         -0.3073
 530       4.079e+00       5.548e-01       8.947e-02           0.243          -0.102           0.965       3.313e-01         -0.1896
 531       4.313e+00       5.548e-01       2.683e-02           0.280          -0.111           0.954       2.092e-01         -0.0891
 532       4.434e+00       5.548e-01      -1.577e-02           0.463          -0.153           0.873       7.767e-02          0.0964
Strip 21
 533       4.703e+00       1.661e+00       2.142e-02          -0.063           0.062          -0.996       6.364e-02          0.1262
 534       4.590e+00       1.661e+00       4.018e-02          -0.195           0.093          -0.976       1.910e-01          0.3034
 535       4.369e+00       1.661e+00       6.245e-02          -0.039           0.054          -0.998       2.994e-01          0.4022
 536       4.055e+00       1.661e+00       4.570e-02           0.123           0.010          -0.992       3.967e-01          0.3510
 537       3.665e+00       1.661e+00      -2.163e-02           0.209          -0.015          -0.978       4.764e-01          0.1890
 538       3.222e+00       1.661e+00      -1.106e-01           0.186          -0.008          -0.983       5.199e-01         -0.0515
 539       2.752e+00       1.661e+00      -1.757e-01           0.089           0.026          -0.996       5.284e-01         -0.2248
 540       2.282e+00       1.661e+00      -1.994e-01           0.010           0.055          -0.998       5.116e-01         -0.2599
 541       1.839e+00       1.661e+00      -1.923e-01          -0.045           0.077          -0.996       4.677e-01         -0.2464
 542       1.449e+00       1.661e+00      -1.649e-01          -0.099           0.099          -0.990       3.976e-01         -0.2326
 543       1.135e+00       1.661e+00      -1.225e-01          -0.177           0.132          -0.975       3.063e-01         -0.2369
 544       9.146e-01       1.661e+00      -6.316e-02          -0.372           0.216          -0.903       2.065e-01         -0.1475
 545       8.012e-01       1.661e+00       2.208e-02          -0.800           0.392          -0.455       1.390e-01          0.6511
 546       8.012e-01       1.661e+00       1.225e-01          -0.810           0.356           0.466       1.362e-01          0.3635
 547       9.146e-01       1.660e+00       2.076e-01          -0.379           0.140           0.915       2.039e-01         -0.6061
 548       1.135e+00       1.660e+00       2.676e-01          -0.180           0.048           0.982       3.041e-01         -0.5408
 549       1.449e+00       1.660e+00       3.099e-01          -0.097           0.011           0.995       3.955e-01         -0.4654
 550       1.839e+00       1.660e+00       3.367e-01          -0.044          -0.011           0.999       4.661e-01         -0.4380
 551       2.282e+00       1.660e+00       3.467e-01          -0.003          -0.027           1.000       5.107e-01         -0.4265
 552       2.752e+00       1.660e+00       3.388e-01           0.036          -0.041           0.999       5.266e-01         -0.4219
 553       3.222e+00       1.660e+00       3.119e-01           0.079          -0.056           0.995       5.129e-01         -0.4107
 554       3.665e+00       1.660e+00       2.654e-01           0.132          -0.072           0.989       4.709e-01         -0.3691
 555       4.055e+00       1.660e+00       2.026e-01           0.189          -0.089           0.978       4.025e-01         -0.2898
 556       4.369e+00       1.661e+00       1.339e-01           0.243          -0.102           0.965       3.097e-01         -0.1755
 557       4.590e+00       1.661e+00       7.496e-02           0.280          -0.111           0.954       1.956e-01         -0.0785
 558       4.703e+00       1.661e+00       3.486e-02           0.463          -0.153           0.873       7.260e-02          0.1052
Strip 22
 559       4.969e+00       2.755e+00       7.237e-02          -0.063           0.062          -0.996       5.890e-02          0.1291
 560       4.863e+00       2.755e+00       8.997e-02          -0.196           0.093          -0.976       1.768e-01          0.3058
 561       4.656e+00       2.755e+00       1.109e-01          -0.039           0.054          -0.998       2.771e-01          0.4046
 562       4.362e+00       2.755e+00       9.515e-02           0.123           0.010          -0.992       3.672e-01          0.3544
 563       3.996e+00       2.755e+00       3.198e-02           0.209          -0.015          -0.978       4.409e-01          0.1944
 564       3.580e+00       2.756e+00      -5.154e-02           0.186          -0.008          -0.983       4.811e-01         -0.0438
 565       3.139e+00       2.756e+00      -1.126e-01           0.089           0.026          -0.996       4.890e-01         -0.2166
 566       2.698e+00       2.756e+00      -1.348e-01           0.010           0.055          -0.998       4.735e-01         -0.2534
 567       2.282e+00       2.756e+00      -1.282e-01          -0.045           0.077          -0.996       4.328e-01         -0.2416
 568       1.916e+00       2.756e+00      -1.025e-01          -0.099           0.099          -0.990       3.680e-01         -0.2277
[...]
 852       6.234e+00       1.207e+01       4.143e-01           0.010           0.055          -0.998       9.364e-02         -0.2279
 853       6.051e+00       1.207e+01       4.173e-01          -0.045           0.077          -0.996       8.554e-02         -0.2083
 854       5.890e+00       1.206e+01       4.286e-01          -0.099           0.099          -0.990       7.268e-02         -0.1812
 855       5.760e+00       1.206e+01       4.461e-01          -0.177           0.132          -0.975       5.594e-02         -0.1552
 856       5.669e+00       1.206e+01       4.706e-01          -0.373           0.217          -0.902       3.762e-02         -0.0014
 857       5.622e+00       1.206e+01       5.058e-01          -0.804           0.393          -0.446       2.531e-02          0.7343
 858       5.622e+00       1.206e+01       5.473e-01          -0.806           0.354           0.475       2.505e-02          0.1577
 859       5.669e+00       1.206e+01       5.824e-01          -0.377           0.139           0.916       3.750e-02         -0.8530
 860       5.760e+00       1.206e+01       6.072e-01          -0.180           0.048           0.983       5.578e-02         -0.6866
 861       5.890e+00       1.206e+01       6.247e-01          -0.097           0.011           0.995       7.247e-02         -0.5590
 862       6.051e+00       1.206e+01       6.357e-01          -0.044          -0.011           0.999       8.534e-02         -0.5003
 863       6.234e+00       1.206e+01       6.398e-01          -0.003          -0.027           1.000       9.347e-02         -0.4660
 864       6.429e+00       1.206e+01       6.366e-01           0.036          -0.041           0.999       9.633e-02         -0.4439
 865       6.623e+00       1.206e+01       6.255e-01           0.079          -0.056           0.995       9.379e-02         -0.4199
 866       6.806e+00       1.206e+01       6.063e-01           0.132          -0.072           0.989       8.608e-02         -0.3701
 867       6.968e+00       1.206e+01       5.803e-01           0.190          -0.089           0.978       7.354e-02         -0.2864
 868       7.097e+00       1.206e+01       5.520e-01           0.243          -0.103           0.965       5.657e-02         -0.1695
 869       7.189e+00       1.206e+01       5.276e-01           0.281          -0.112           0.953       3.572e-02         -0.0704
 870       7.235e+00       1.206e+01       5.111e-01           0.465          -0.153           0.872       1.325e-02          0.1173
Strip 34
 871       7.344e+00       1.251e+01       5.263e-01          -0.063           0.062          -0.996       9.050e-03          0.1329
 872       7.300e+00       1.251e+01       5.335e-01          -0.196           0.093          -0.976       2.713e-02          0.3060
 873       7.214e+00       1.251e+01       5.422e-01          -0.039           0.054          -0.998       4.259e-02          0.4020
 874       7.092e+00       1.251e+01       5.357e-01           0.123           0.011          -0.992       5.650e-02          0.3517
 875       6.941e+00       1.251e+01       5.096e-01           0.209          -0.015          -0.978       6.792e-02          0.1953
 876       6.769e+00       1.251e+01       4.751e-01           0.185          -0.008          -0.983       7.411e-02         -0.0357
 877       6.586e+00       1.251e+01       4.498e-01           0.089           0.026          -0.996       7.525e-02         -0.2019
 878       6.404e+00       1.251e+01       4.406e-01           0.010           0.055          -0.998       7.279e-02         -0.2340
 879       6.232e+00       1.251e+01       4.434e-01          -0.045           0.077          -0.996       6.649e-02         -0.2160
 880       6.080e+00       1.251e+01       4.540e-01          -0.099           0.099          -0.990       5.649e-02         -0.1903
 881       5.958e+00       1.251e+01       4.704e-01          -0.177           0.132          -0.975       4.347e-02         -0.1666
 882       5.873e+00       1.251e+01       4.935e-01          -0.374           0.217          -0.902       2.923e-02         -0.0174
 883       5.829e+00       1.251e+01       5.265e-01          -0.804           0.393          -0.446       1.967e-02          0.7264
 884       5.829e+00       1.251e+01       5.655e-01          -0.805           0.354           0.476       1.948e-02          0.1731
 885       5.873e+00       1.251e+01       5.985e-01          -0.377           0.139           0.916       2.916e-02         -0.8298
 886       5.958e+00       1.250e+01       6.217e-01          -0.180           0.048           0.983       4.337e-02         -0.6699
 887       6.080e+00       1.250e+01       6.381e-01          -0.097           0.011           0.995       5.634e-02         -0.5442
 888       6.232e+00       1.250e+01       6.485e-01          -0.044          -0.011           0.999       6.634e-02         -0.4850
 889       6.404e+00       1.250e+01       6.524e-01          -0.003          -0.027           1.000       7.266e-02         -0.4495
 890       6.586e+00       1.250e+01       6.493e-01           0.036          -0.041           0.999       7.488e-02         -0.4267
 891       6.769e+00       1.250e+01       6.389e-01           0.079          -0.056           0.995       7.290e-02         -0.4032
 892       6.941e+00       1.250e+01       6.209e-01           0.132          -0.072           0.989       6.691e-02         -0.3556
 893       7.092e+00       1.251e+01       5.965e-01           0.190          -0.089           0.978       5.716e-02         -0.2754
 894       7.214e+00       1.251e+01       5.699e-01           0.243          -0.103           0.965       4.396e-02         -0.1623
 895       7.300e+00       1.251e+01       5.470e-01           0.281          -0.112           0.953       2.776e-02         -0.0664
 896       7.344e+00       1.251e+01       5.315e-01           0.465          -0.153           0.872       1.029e-02          0.1203
Strip 35
 897       7.432e+00       1.287e+01       5.430e-01          -0.063           0.062          -0.996       6.732e-03          0.1292
 898       7.390e+00       1.287e+01       5.499e-01          -0.196           0.093          -0.976       2.018e-02          0.3007
 899       7.309e+00       1.287e+01       5.581e-01          -0.039           0.054          -0.998       3.168e-02          0.3956
 900       7.193e+00       1.287e+01       5.520e-01           0.122           0.011          -0.992       4.204e-02          0.3457
 901       7.050e+00       1.287e+01       5.272e-01           0.209          -0.015          -0.978       5.053e-02          0.1906
 902       6.887e+00       1.287e+01       4.945e-01           0.185          -0.008          -0.983       5.514e-02         -0.0389
 903       6.714e+00       1.287e+01       4.706e-01           0.089           0.026          -0.996       5.598e-02         -0.2047
 904       6.541e+00       1.287e+01       4.619e-01           0.010           0.055          -0.998       5.415e-02         -0.2390
 905       6.378e+00       1.287e+01       4.645e-01          -0.045           0.077          -0.996       4.946e-02         -0.2250
 906       6.234e+00       1.287e+01       4.746e-01          -0.099           0.099          -0.990       4.202e-02         -0.2037
 907       6.118e+00       1.287e+01       4.901e-01          -0.178           0.132          -0.975       3.233e-02         -0.1851
 908       6.037e+00       1.287e+01       5.120e-01          -0.374           0.217          -0.902       2.173e-02         -0.0444
 909       5.996e+00       1.287e+01       5.433e-01          -0.805           0.394          -0.445       1.462e-02          0.7110
 910       5.996e+00       1.287e+01       5.802e-01          -0.805           0.354           0.477       1.450e-02          0.1954
 911       6.037e+00       1.287e+01       6.115e-01          -0.377           0.139           0.916       2.171e-02         -0.7952
 912       6.118e+00       1.286e+01       6.335e-01          -0.180           0.048           0.983       3.227e-02         -0.6437
 913       6.234e+00       1.286e+01       6.491e-01          -0.097           0.011           0.995       4.192e-02         -0.5192
 914       6.378e+00       1.286e+01       6.589e-01          -0.044          -0.011           0.999       4.935e-02         -0.4576
 915       6.541e+00       1.286e+01       6.626e-01          -0.003          -0.027           1.000       5.405e-02         -0.4190
 916       6.714e+00       1.286e+01       6.597e-01           0.036          -0.041           0.999       5.570e-02         -0.3948
 917       6.887e+00       1.286e+01       6.498e-01           0.079          -0.056           0.995       5.423e-02         -0.3729
 918       7.050e+00       1.286e+01       6.327e-01           0.132          -0.072           0.989       4.976e-02         -0.3302
 919       7.193e+00       1.287e+01       6.096e-01           0.190          -0.089           0.978       4.251e-02         -0.2575
 920       7.309e+00       1.287e+01       5.844e-01           0.243          -0.103           0.964       3.270e-02         -0.1521
 921       7.390e+00       1.287e+01       5.627e-01           0.281          -0.112           0.953       2.065e-02         -0.0628
 922       7.432e+00       1.287e+01       5.480e-01           0.465          -0.153           0.872       7.656e-03          0.1218
Strip 36
 923       7.498e+00       1.314e+01       5.557e-01          -0.063           0.062          -0.996       4.639e-03          0.1107
 924       7.458e+00       1.314e+01       5.623e-01          -0.196           0.093          -0.976       1.391e-02          0.2793
 925       7.380e+00       1.314e+01       5.702e-01          -0.039           0.054          -0.998       2.183e-02          0.3736
 926       7.270e+00       1.314e+01       5.643e-01           0.122           0.011          -0.992       2.897e-02          0.3275
 927       7.132e+00       1.314e+01       5.406e-01           0.209          -0.015          -0.978       3.483e-02          0.1796
 928       6.976e+00       1.314e+01       5.092e-01           0.185          -0.007          -0.983       3.800e-02         -0.0403
 929       6.810e+00       1.314e+01       4.863e-01           0.089           0.026          -0.996       3.859e-02         -0.1982
 930       6.644e+00       1.314e+01       4.780e-01           0.010           0.055          -0.998       3.732e-02         -0.2323
 931       6.488e+00       1.314e+01       4.805e-01          -0.045           0.077          -0.996       3.409e-02         -0.2266
 932       6.350e+00       1.314e+01       4.901e-01          -0.099           0.099          -0.990       2.895e-02         -0.2182
 933       6.240e+00       1.314e+01       5.050e-01          -0.178           0.132          -0.975       2.228e-02         -0.2128
 934       6.162e+00       1.314e+01       5.259e-01          -0.374           0.217          -0.902       1.497e-02         -0.0879
 935       6.122e+00       1.314e+01       5.559e-01          -0.805           0.394          -0.444       1.007e-02          0.6791
 936       6.122e+00       1.314e+01       5.913e-01          -0.804           0.353           0.478       9.998e-03          0.2171
 937       6.162e+00       1.314e+01       6.213e-01          -0.377           0.139           0.916       1.496e-02         -0.7513
 938       6.240e+00       1.314e+01       6.424e-01          -0.180           0.048           0.983       2.225e-02         -0.6058
 939       6.350e+00       1.314e+01       6.573e-01          -0.097           0.011           0.995       2.889e-02         -0.4776
 940       6.488e+00       1.314e+01       6.667e-01          -0.044          -0.011           0.999       3.402e-02         -0.4084
 941       6.644e+00       1.314e+01       6.702e-01          -0.003          -0.027           1.000       3.725e-02         -0.3657
 942       6.810e+00       1.314e+01       6.675e-01           0.036          -0.041           0.999       3.839e-02         -0.3422
 943       6.976e+00       1.314e+01       6.580e-01           0.079          -0.056           0.995       3.737e-02         -0.3256
 944       7.132e+00       1.314e+01       6.416e-01           0.132          -0.072           0.989       3.429e-02         -0.2931
 945       7.270e+00       1.314e+01       6.195e-01           0.190          -0.089           0.978       2.929e-02         -0.2345
 946       7.380e+00       1.314e+01       5.953e-01           0.243          -0.103           0.964       2.253e-02         -0.1449
 947       7.458e+00       1.314e+01       5.746e-01           0.281          -0.112           0.953       1.423e-02         -0.0707
 948       7.498e+00       1.314e+01       5.604e-01           0.465          -0.153           0.872       5.275e-03          0.1095
Strip 37
 949       7.542e+00       1.332e+01       5.642e-01          -0.063           0.062          -0.996       2.715e-03          0.0347
 950       7.504e+00       1.332e+01       5.706e-01          -0.196           0.093          -0.976       8.137e-03          0.1917
 951       7.428e+00       1.332e+01       5.782e-01          -0.039           0.054          -0.998       1.277e-02          0.2916
 952       7.321e+00       1.332e+01       5.725e-01           0.122           0.011          -0.992       1.695e-02          0.2690
 953       7.187e+00       1.332e+01       5.495e-01           0.209          -0.015          -0.978       2.038e-02          0.1485
 954       7.036e+00       1.333e+01       5.191e-01           0.185          -0.007          -0.983       2.224e-02         -0.0424
 955       6.874e+00       1.333e+01       4.968e-01           0.089           0.026          -0.996       2.258e-02         -0.1759
 956       6.713e+00       1.333e+01       4.887e-01           0.010           0.055          -0.998       2.184e-02         -0.2017
 957       6.562e+00       1.333e+01       4.912e-01          -0.045           0.077          -0.996       1.994e-02         -0.2015
 958       6.428e+00       1.333e+01       5.005e-01          -0.099           0.099          -0.990       1.694e-02         -0.2124
 959       6.321e+00       1.333e+01       5.150e-01          -0.178           0.132          -0.975       1.303e-02         -0.2416
 960       6.245e+00       1.332e+01       5.353e-01          -0.374           0.217          -0.902       8.759e-03         -0.1630
 961       6.207e+00       1.332e+01       5.644e-01          -0.805           0.394          -0.443       5.893e-03          0.5846
 962       6.207e+00       1.332e+01       5.988e-01          -0.804           0.353           0.478       5.852e-03          0.2011
 963       6.245e+00       1.332e+01       6.279e-01          -0.377           0.139           0.916       8.759e-03         -0.7018
 964       6.321e+00       1.332e+01       6.484e-01          -0.180           0.048           0.983       1.302e-02         -0.5416
 965       6.428e+00       1.332e+01       6.628e-01          -0.097           0.011           0.995       1.691e-02         -0.4008
 966       6.562e+00       1.332e+01       6.720e-01          -0.044          -0.011           0.999       1.990e-02         -0.3299
 967       6.713e+00       1.332e+01       6.754e-01          -0.003          -0.027           1.000       2.180e-02         -0.2924
 968       6.874e+00       1.332e+01       6.727e-01           0.036          -0.041           0.999       2.246e-02         -0.2748
 969       7.036e+00       1.332e+01       6.635e-01           0.079          -0.056           0.995       2.187e-02         -0.2665
 970       7.187e+00       1.332e+01       6.476e-01           0.132          -0.072           0.989       2.007e-02         -0.2522
 971       7.321e+00       1.332e+01       6.261e-01           0.190          -0.089           0.978       1.714e-02         -0.2264
 972       7.428e+00       1.332e+01       6.027e-01           0.243          -0.103           0.964       1.318e-02         -0.1792
 973       7.504e+00       1.332e+01       5.825e-01           0.281          -0.112           0.953       8.324e-03         -0.1467
 974       7.542e+00       1.332e+01       5.688e-01           0.465          -0.153           0.872       3.086e-03          0.0230
Strip 38
 975       7.565e+00       1.341e+01       5.685e-01          -0.063           0.062          -0.996       8.932e-04         -0.0513
 976       7.527e+00       1.341e+01       5.748e-01          -0.196           0.093          -0.976       2.677e-03          0.0593
 977       7.452e+00       1.341e+01       5.823e-01          -0.039           0.054          -0.998       4.203e-03          0.1341
 978       7.346e+00       1.341e+01       5.767e-01           0.122           0.011          -0.992       5.579e-03          0.1410
 979       7.215e+00       1.342e+01       5.540e-01           0.209          -0.015          -0.978       6.708e-03          0.0780
 980       7.065e+00       1.342e+01       5.240e-01           0.185          -0.007          -0.983       7.319e-03         -0.0490
 981       6.907e+00       1.342e+01       5.021e-01           0.089           0.026          -0.996       7.430e-03         -0.1407
 982       6.748e+00       1.342e+01       4.941e-01           0.010           0.055          -0.998       7.186e-03         -0.1573
 983       6.599e+00       1.342e+01       4.965e-01          -0.045           0.077          -0.996       6.563e-03         -0.1576
 984       6.467e+00       1.342e+01       5.057e-01          -0.099           0.099          -0.990       5.574e-03         -0.1685
 985       6.362e+00       1.342e+01       5.200e-01          -0.178           0.132          -0.975       4.288e-03         -0.2041
 986       6.287e+00       1.342e+01       5.400e-01          -0.374           0.217          -0.902       2.882e-03         -0.1717
 987       6.249e+00       1.341e+01       5.687e-01          -0.805           0.394          -0.443       1.939e-03          0.4970
 988       6.249e+00       1.341e+01       6.025e-01          -0.804           0.353           0.478       1.926e-03          0.2020
 989       6.287e+00       1.341e+01       6.312e-01          -0.376           0.139           0.916       2.883e-03         -0.5877
 990       6.362e+00       1.341e+01       6.513e-01          -0.180           0.048           0.983       4.284e-03         -0.4282
 991       6.467e+00       1.341e+01       6.656e-01          -0.097           0.011           0.995       5.564e-03         -0.3088
 992       6.599e+00       1.341e+01       6.746e-01          -0.044          -0.011           0.999       6.550e-03         -0.2569
 993       6.748e+00       1.341e+01       6.780e-01          -0.003          -0.027           1.000       7.172e-03         -0.2292
 994       6.907e+00       1.341e+01       6.753e-01           0.036          -0.041           0.999       7.391e-03         -0.2129
 995       7.065e+00       1.341e+01       6.662e-01           0.079          -0.056           0.995       7.195e-03         -0.2004
 996       7.215e+00       1.341e+01       6.506e-01           0.132          -0.072           0.989       6.602e-03         -0.1844
 997       7.346e+00       1.341e+01       6.295e-01           0.190          -0.089           0.978       5.640e-03         -0.1745
 998       7.452e+00       1.341e+01       6.064e-01           0.243          -0.103           0.964       4.337e-03         -0.1767
 999       7.527e+00       1.341e+01       5.865e-01           0.281          -0.112           0.953       2.739e-03         -0.2012
1000       7.565e+00       1.341e+01       5.730e-01           0.465          -0.153           0.872       1.015e-03         -0.0562










