xflr5 v6.61

Plane Name
T1-10.0 m/s-Panel-0.0kg-x0.0m-Inviscid
QInf  =   10.000000 m/s
Alpha =    8.000000
Beta  =    0.000°
Phi   =    0.000°
Ctrl  =    0.000
CL    =    1.047709
Cy    =    0.000000
Cd    =    0.038241     ICd   =    0.038241     PCd   =    0.000000
Cl   =  1.8792e-15
Cm   =    -1.18861
ICn   =    0.000000     PCn   =    0.000000 
XCP   =    3.476048     YCP   =   -0.000000     ZCP   =    0.328686  
XNP   =    0.000000
Bending = 9662.193385

Main Wing
  y-span        Chord      Ai         Cl        PCd          ICd        CmGeom    CmAirf@chord/4    XTrtop    XTrBot      XCP       BM
  -11.9595     1.3346    -8.861    0.344935    0.000000    0.053780   -1.813834   -0.015021     0.0000    0.0000    0.2836    0.0000
  -11.8778     1.3530    -6.670    0.568052    0.000000    0.066429   -2.662276   -0.048533     0.0000    0.0000    0.3271    0.0973
  -11.7150     1.3896    -5.259    0.763075    0.000000    0.070228   -3.300045   -0.055445     0.0000    0.0000    0.3174    1.2597
  -11.4722     1.4442    -4.179    0.911150    0.000000    0.066547   -3.735282   -0.069939     0.0000    0.0000    0.3217    6.3001
  -11.1509     1.5165    -3.379    1.015363    0.000000    0.059915   -3.900336   -0.083036     0.0000    0.0000    0.3266   20.5139
  -10.7535     1.6059    -2.786    1.082979    0.000000    0.052664   -3.836912   -0.092558     0.0000    0.0000    0.3301   52.0161
  -10.2827     1.7118    -2.363    1.122562    0.000000    0.046276   -3.615903   -0.098692     0.0000    0.0000    0.3324   111.8450
   -9.7416     1.8336    -2.082    1.141955    0.000000    0.041453   -3.303171   -0.102389     0.0000    0.0000    0.3341   213.9022
   -9.1339     1.9702    -1.912    1.147179    0.000000    0.038242   -2.948044   -0.104529     0.0000    0.0000    0.3356   374.7692
   -8.4639     2.1210    -1.827    1.142388    0.000000    0.036372   -2.583308   -0.105708     0.0000    0.0000    0.3370   613.3971
   -7.7361     2.2847    -1.803    1.130282    0.000000    0.035504   -2.228996   -0.106310     0.0000    0.0000    0.3385   950.6444
   -6.9554     2.4603    -1.823    1.112520    0.000000    0.035328   -1.896597   -0.106554     0.0000    0.0000    0.3403   1408.6383
   -6.1271     2.6466    -1.875    1.090053    0.000000    0.035583   -1.591944   -0.106577     0.0000    0.0000    0.3423   2009.9474
   -5.2571     2.8424    -1.948    1.063329    0.000000    0.036048   -1.317325   -0.106493     0.0000    0.0000    0.3447   2776.5713
   -4.3511     3.0462    -2.032    1.032396    0.000000    0.036497   -1.073034   -0.106422     0.0000    0.0000    0.3477   3728.7642
   -3.4154     3.2567    -2.116    0.996970    0.000000    0.036669   -0.858277   -0.106586     0.0000    0.0000    0.3517   4883.7300
   -2.4564     3.4724    -2.180    0.956413    0.000000    0.036180   -0.672047   -0.107487     0.0000    0.0000    0.3573   6254.2334
   -1.4806     3.6919    -2.179    0.909442    0.000000    0.034220   -0.513952   -0.110375     0.0000    0.0000    0.3664   7847.1836
   -0.4947     3.9137    -1.960    0.850598    0.000000    0.027934   -0.386391   -0.119685     0.0000    0.0000    0.3858   9662.1934
    0.4947     3.9137    -1.960    0.850598    0.000000    0.027934   -0.386391   -0.119685     0.0000    0.0000    0.3858   9662.1934
    1.4806     3.6919    -2.179    0.909442    0.000000    0.034220   -0.513952   -0.110375     0.0000    0.0000    0.3664   7847.1836
    2.4564     3.4724    -2.180    0.956413    0.000000    0.036180   -0.672047   -0.107487     0.0000    0.0000    0.3573   6254.2334
    3.4154     3.2567    -2.116    0.996970    0.000000    0.036669   -0.858277   -0.106586     0.0000    0.0000    0.3517   4883.7300
    4.3511     3.0462    -2.032    1.032396    0.000000    0.036497   -1.073034   -0.106422     0.0000    0.0000    0.3477   3728.7642
    5.2571     2.8424    -1.948    1.063329    0.000000    0.036048   -1.317325   -0.106493     0.0000    0.0000    0.3447   2776.5713
    6.1271     2.6466    -1.875    1.090053    0.000000    0.035583   -1.591944   -0.106577     0.0000    0.0000    0.3423   2009.9474
    6.9554     2.4603    -1.823    1.112520    0.000000    0.035328   -1.896597   -0.106554     0.0000    0.0000    0.3403   1408.6383
    7.7361     2.2847    -1.803    1.130282    0.000000    0.035504   -2.228996   -0.106310     0.0000    0.0000    0.3385   950.6444
    8.4639     2.1210    -1.827    1.142388    0.000000    0.036372   -2.583308   -0.105708     0.0000    0.0000    0.3370   613.3971
    9.1339     1.9702    -1.912    1.147179    0.000000    0.038242   -2.948044   -0.104529     0.0000    0.0000    0.3356   374.7692
    9.7416     1.8336    -2.082    1.141955    0.000000    0.041453   -3.303171   -0.102389     0.0000    0.0000    0.3341   213.9022
   10.2827     1.7118    -2.363    1.122562    0.000000    0.046276   -3.615903   -0.098692     0.0000    0.0000    0.3324   111.8450
   10.7535     1.6059    -2.786    1.082979    0.000000    0.052664   -3.836912   -0.092558     0.0000    0.0000    0.3301   52.0161
   11.1509     1.5165    -3.379    1.015363    0.000000    0.059915   -3.900336   -0.083036     0.0000    0.0000    0.3266   20.5139
   11.4722     1.4442    -4.179    0.911150    0.000000    0.066547   -3.735282   -0.069939     0.0000    0.0000    0.3217    6.3001
   11.7150     1.3896    -5.259    0.763075    0.000000    0.070228   -3.300045   -0.055445     0.0000    0.0000    0.3174    1.2597
   11.8778     1.3530    -6.670    0.568052    0.000000    0.066429   -2.662276   -0.048533     0.0000    0.0000    0.3271    0.0973
   11.9595     1.3346    -8.861    0.344935    0.000000    0.053780   -1.813834   -0.015021     0.0000    0.0000    0.2836    0.0000


Main Wing Cp Coefficients
 Panel     CtrlPt.x        CtrlPt.y        CtrlPt.z       Nx      Ny       Nz        Area       Cp
Main WingCp Coefficients
Strip 1
  13       6.885e+00      -1.195e+01       5.045e-01          -0.063          -0.062          -0.996       7.953e-04         -0.9731
  14       6.847e+00      -1.195e+01       5.108e-01          -0.196          -0.093          -0.976       2.384e-03         -0.9355
  15       6.773e+00      -1.195e+01       5.183e-01          -0.039          -0.054          -0.998       3.742e-03         -0.8019
  16       6.667e+00      -1.195e+01       5.126e-01           0.122          -0.011          -0.992       4.967e-03         -0.5407
  17       6.536e+00      -1.195e+01       4.900e-01           0.209           0.015          -0.978       5.972e-03         -0.3254
  18       6.386e+00      -1.195e+01       4.600e-01           0.185           0.007          -0.983       6.516e-03         -0.2517
  19       6.228e+00      -1.195e+01       4.382e-01           0.089          -0.026          -0.996       6.616e-03         -0.2215
  20       6.069e+00      -1.195e+01       4.302e-01           0.010          -0.055          -0.998       6.398e-03         -0.1755
  21       5.920e+00      -1.195e+01       4.326e-01          -0.045          -0.077          -0.996       5.843e-03         -0.1274
  22       5.789e+00      -1.195e+01       4.418e-01          -0.099          -0.099          -0.990       4.963e-03         -0.0673
  23       5.683e+00      -1.195e+01       4.560e-01          -0.178          -0.132          -0.975       3.818e-03          0.0458
  24       5.608e+00      -1.195e+01       4.760e-01          -0.374          -0.217          -0.902       2.566e-03          0.3141
  25       5.570e+00      -1.195e+01       5.047e-01          -0.805          -0.394          -0.443       1.726e-03          0.3647
  26       5.570e+00      -1.195e+01       5.385e-01          -0.804          -0.353           0.478       1.715e-03         -1.2348
  27       5.608e+00      -1.195e+01       5.671e-01          -0.376          -0.139           0.916       2.567e-03         -1.8183
  28       5.683e+00      -1.195e+01       5.873e-01          -0.180          -0.048           0.983       3.814e-03         -0.9958
  29       5.789e+00      -1.194e+01       6.016e-01          -0.097          -0.011           0.995       4.953e-03         -0.6552
  30       5.920e+00      -1.194e+01       6.106e-01          -0.044           0.011           0.999       5.832e-03         -0.5234
  31       6.069e+00      -1.194e+01       6.139e-01          -0.003           0.027           1.000       6.386e-03         -0.4592
  32       6.228e+00      -1.194e+01       6.113e-01           0.036           0.041           0.999       6.580e-03         -0.4293
  33       6.386e+00      -1.194e+01       6.022e-01           0.079           0.056           0.995       6.406e-03         -0.4359
  34       6.536e+00      -1.195e+01       5.866e-01           0.132           0.072           0.989       5.878e-03         -0.5108
  35       6.667e+00      -1.195e+01       5.654e-01           0.190           0.088           0.978       5.021e-03         -0.7080
  36       6.773e+00      -1.195e+01       5.423e-01           0.243           0.102           0.965       3.862e-03         -0.9915
  37       6.847e+00      -1.195e+01       5.225e-01           0.281           0.111           0.953       2.438e-03         -1.1943
  38       6.885e+00      -1.195e+01       5.090e-01           0.465           0.152           0.872       9.040e-04         -1.0459
Strip 2
  39       6.866e+00      -1.187e+01       5.007e-01          -0.063          -0.062          -0.996       2.413e-03         -0.4471
  40       6.827e+00      -1.187e+01       5.071e-01          -0.196          -0.093          -0.976       7.233e-03         -0.3127
  41       6.752e+00      -1.187e+01       5.147e-01          -0.039          -0.054          -0.998       1.136e-02         -0.1994
  42       6.644e+00      -1.187e+01       5.090e-01           0.122          -0.011          -0.992       1.507e-02         -0.1060
  43       6.511e+00      -1.187e+01       4.860e-01           0.209           0.015          -0.978       1.812e-02         -0.0843
  44       6.360e+00      -1.187e+01       4.556e-01           0.185           0.007          -0.983       1.977e-02         -0.1508
  45       6.199e+00      -1.187e+01       4.334e-01           0.089          -0.026          -0.996       2.007e-02         -0.1866
  46       6.038e+00      -1.187e+01       4.253e-01           0.010          -0.055          -0.998       1.941e-02         -0.1478
  47       5.887e+00      -1.187e+01       4.278e-01          -0.045          -0.077          -0.996       1.773e-02         -0.0836
  48       5.754e+00      -1.187e+01       4.371e-01          -0.099          -0.099          -0.990       1.506e-02          0.0052
  49       5.646e+00      -1.187e+01       4.516e-01          -0.178          -0.132          -0.975       1.159e-02          0.1608
  50       5.571e+00      -1.187e+01       4.718e-01          -0.374          -0.217          -0.902       7.787e-03          0.4811
  51       5.532e+00      -1.187e+01       5.009e-01          -0.805          -0.394          -0.443       5.239e-03          0.3518
  52       5.532e+00      -1.187e+01       5.352e-01          -0.804          -0.353           0.478       5.203e-03         -1.7347
  53       5.571e+00      -1.186e+01       5.642e-01          -0.377          -0.139           0.916       7.787e-03         -2.3264
  54       5.646e+00      -1.186e+01       5.847e-01          -0.180          -0.048           0.983       1.157e-02         -1.2769
  55       5.754e+00      -1.186e+01       5.991e-01          -0.097          -0.011           0.995       1.503e-02         -0.8097
  56       5.887e+00      -1.186e+01       6.082e-01          -0.044           0.011           0.999       1.769e-02         -0.6084
  57       6.038e+00      -1.186e+01       6.116e-01          -0.003           0.027           1.000       1.938e-02         -0.5109
  58       6.199e+00      -1.186e+01       6.089e-01           0.036           0.041           0.999       1.997e-02         -0.4669
  59       6.360e+00      -1.186e+01       5.998e-01           0.079           0.056           0.995       1.944e-02         -0.4623
  60       6.511e+00      -1.186e+01       5.839e-01           0.132           0.072           0.989       1.784e-02         -0.4935
  61       6.644e+00      -1.186e+01       5.625e-01           0.190           0.088           0.978       1.524e-02         -0.5601
  62       6.752e+00      -1.187e+01       5.391e-01           0.243           0.102           0.965       1.172e-02         -0.6172
  63       6.827e+00      -1.187e+01       5.189e-01           0.281           0.111           0.953       7.400e-03         -0.6478
  64       6.866e+00      -1.187e+01       5.053e-01           0.465           0.152           0.872       2.743e-03         -0.4315
Strip 3
  65       6.826e+00      -1.170e+01       4.931e-01          -0.063          -0.062          -0.996       4.112e-03         -0.0186
  66       6.787e+00      -1.170e+01       4.997e-01          -0.196          -0.093          -0.976       1.233e-02          0.1643
  67       6.709e+00      -1.170e+01       5.075e-01          -0.039          -0.054          -0.998       1.935e-02          0.2366
  68       6.599e+00      -1.170e+01       5.016e-01           0.122          -0.011          -0.992       2.568e-02          0.2006
  69       6.462e+00      -1.171e+01       4.780e-01           0.209           0.015          -0.978       3.088e-02          0.0947
  70       6.307e+00      -1.171e+01       4.468e-01           0.185           0.007          -0.983       3.369e-02         -0.0494
  71       6.142e+00      -1.171e+01       4.240e-01           0.089          -0.026          -0.996       3.420e-02         -0.1203
  72       5.977e+00      -1.171e+01       4.157e-01           0.010          -0.055          -0.998       3.308e-02         -0.0816
  73       5.821e+00      -1.171e+01       4.182e-01          -0.045          -0.077          -0.996       3.021e-02          0.0069
  74       5.684e+00      -1.171e+01       4.278e-01          -0.099          -0.099          -0.990       2.567e-02          0.1373
  75       5.574e+00      -1.171e+01       4.427e-01          -0.178          -0.132          -0.975       1.975e-02          0.3394
  76       5.497e+00      -1.171e+01       4.635e-01          -0.374          -0.217          -0.902       1.327e-02          0.6668
  77       5.457e+00      -1.170e+01       4.933e-01          -0.805          -0.394          -0.444       8.930e-03          0.3191
  78       5.457e+00      -1.170e+01       5.285e-01          -0.804          -0.354           0.478       8.863e-03         -2.1661
  79       5.497e+00      -1.170e+01       5.584e-01          -0.377          -0.139           0.916       1.327e-02         -2.7594
  80       5.574e+00      -1.170e+01       5.794e-01          -0.180          -0.048           0.983       1.972e-02         -1.5523
  81       5.684e+00      -1.170e+01       5.942e-01          -0.097          -0.011           0.995       2.561e-02         -1.0011
  82       5.821e+00      -1.170e+01       6.036e-01          -0.044           0.011           0.999       3.015e-02         -0.7357
  83       5.977e+00      -1.170e+01       6.071e-01          -0.003           0.027           1.000       3.302e-02         -0.5898
  84       6.142e+00      -1.170e+01       6.043e-01           0.036           0.041           0.999       3.402e-02         -0.5085
  85       6.307e+00      -1.170e+01       5.949e-01           0.079           0.056           0.995       3.312e-02         -0.4575
  86       6.462e+00      -1.170e+01       5.786e-01           0.132           0.072           0.989       3.040e-02         -0.4039
  87       6.599e+00      -1.170e+01       5.566e-01           0.190           0.088           0.978       2.597e-02         -0.3343
  88       6.709e+00      -1.170e+01       5.325e-01           0.243           0.102           0.965       1.997e-02         -0.2358
  89       6.787e+00      -1.170e+01       5.119e-01           0.281           0.111           0.953       1.261e-02         -0.1588
  90       6.826e+00      -1.170e+01       4.978e-01           0.465           0.152           0.872       4.675e-03          0.0788
Strip 4
  91       6.768e+00      -1.146e+01       4.818e-01          -0.063          -0.062          -0.996       5.943e-03          0.0711
  92       6.726e+00      -1.146e+01       4.886e-01          -0.196          -0.093          -0.976       1.782e-02          0.2705
  93       6.646e+00      -1.146e+01       4.967e-01          -0.039          -0.054          -0.998       2.796e-02          0.3489
  94       6.531e+00      -1.146e+01       4.906e-01           0.122          -0.011          -0.992       3.711e-02          0.3040
  95       6.389e+00      -1.146e+01       4.661e-01           0.209           0.015          -0.978       4.461e-02          0.1817
  96       6.228e+00      -1.146e+01       4.337e-01           0.185           0.007          -0.983       4.868e-02          0.0216
  97       6.056e+00      -1.146e+01       4.100e-01           0.089          -0.026          -0.996       4.942e-02         -0.0566
  98       5.884e+00      -1.147e+01       4.014e-01           0.010          -0.055          -0.998       4.781e-02         -0.0126
  99       5.723e+00      -1.146e+01       4.040e-01          -0.045          -0.077          -0.996       4.366e-02          0.0904
 100       5.581e+00      -1.146e+01       4.139e-01          -0.099          -0.099          -0.990       3.709e-02          0.2351
 101       5.466e+00      -1.146e+01       4.294e-01          -0.178          -0.132          -0.975       2.854e-02          0.4416
 102       5.386e+00      -1.146e+01       4.510e-01          -0.374          -0.217          -0.902       1.919e-02          0.7397
 103       5.344e+00      -1.146e+01       4.820e-01          -0.805          -0.394          -0.444       1.291e-02          0.2087
 104       5.344e+00      -1.146e+01       5.186e-01          -0.805          -0.354           0.477       1.280e-02         -2.5203
 105       5.386e+00      -1.146e+01       5.496e-01          -0.377          -0.139           0.916       1.916e-02         -3.0742
 106       5.466e+00      -1.146e+01       5.715e-01          -0.180          -0.048           0.983       2.849e-02         -1.7443
 107       5.581e+00      -1.146e+01       5.869e-01          -0.097          -0.011           0.995       3.700e-02         -1.1486
 108       5.723e+00      -1.146e+01       5.966e-01          -0.044           0.011           0.999       4.357e-02         -0.8571
 109       5.884e+00      -1.146e+01       6.003e-01          -0.003           0.027           1.000       4.771e-02         -0.6846
 110       6.056e+00      -1.146e+01       5.974e-01           0.036           0.041           0.999       4.917e-02         -0.5758
 111       6.228e+00      -1.146e+01       5.876e-01           0.079           0.056           0.995       4.787e-02         -0.4962
 112       6.389e+00      -1.146e+01       5.706e-01           0.132           0.072           0.989       4.393e-02         -0.4117
 113       6.531e+00      -1.146e+01       5.478e-01           0.190           0.088           0.978       3.753e-02         -0.3087
 114       6.646e+00      -1.146e+01       5.228e-01           0.243           0.102           0.965       2.886e-02         -0.1777
 115       6.726e+00      -1.146e+01       5.013e-01           0.281           0.111           0.953       1.823e-02         -0.0754
 116       6.768e+00      -1.146e+01       4.867e-01           0.465           0.152           0.872       6.758e-03          0.1635
Strip 5
 117       6.690e+00      -1.114e+01       4.669e-01          -0.063          -0.062          -0.996       7.950e-03          0.1009
 118       6.647e+00      -1.114e+01       4.740e-01          -0.196          -0.093          -0.976       2.383e-02          0.3085
 119       6.562e+00      -1.114e+01       4.826e-01          -0.039          -0.054          -0.998       3.741e-02          0.3923
 120       6.442e+00      -1.114e+01       4.761e-01           0.123          -0.011          -0.992       4.964e-02          0.3489
 121       6.293e+00      -1.114e+01       4.504e-01           0.209           0.015          -0.978       5.967e-02          0.2266
 122       6.123e+00      -1.114e+01       4.163e-01           0.185           0.007          -0.983       6.510e-02          0.0677
 123       5.943e+00      -1.114e+01       3.915e-01           0.089          -0.026          -0.996       6.611e-02         -0.0072
 124       5.763e+00      -1.114e+01       3.824e-01           0.010          -0.055          -0.998       6.395e-02          0.0414
 125       5.593e+00      -1.114e+01       3.851e-01          -0.045          -0.077          -0.996       5.841e-02          0.1482
 126       5.444e+00      -1.114e+01       3.956e-01          -0.099          -0.099          -0.990       4.963e-02          0.2939
 127       5.323e+00      -1.114e+01       4.118e-01          -0.177          -0.132          -0.975       3.819e-02          0.4976
 128       5.239e+00      -1.114e+01       4.345e-01          -0.374          -0.217          -0.902       2.568e-02          0.7715
 129       5.196e+00      -1.114e+01       4.671e-01          -0.804          -0.394          -0.445       1.728e-02          0.1100
 130       5.196e+00      -1.114e+01       5.055e-01          -0.805          -0.354           0.476       1.712e-02         -2.7843
 131       5.239e+00      -1.114e+01       5.381e-01          -0.377          -0.139           0.916       2.562e-02         -3.2993
 132       5.323e+00      -1.114e+01       5.610e-01          -0.180          -0.048           0.983       3.810e-02         -1.8755
 133       5.444e+00      -1.114e+01       5.772e-01          -0.097          -0.011           0.995       4.950e-02         -1.2487
 134       5.593e+00      -1.114e+01       5.874e-01          -0.044           0.011           0.999       5.828e-02         -0.9443
 135       5.763e+00      -1.114e+01       5.913e-01          -0.003           0.027           1.000       6.382e-02         -0.7612
 136       5.943e+00      -1.114e+01       5.882e-01           0.036           0.041           0.999       6.578e-02         -0.6397
 137       6.123e+00      -1.114e+01       5.779e-01           0.079           0.056           0.995       6.404e-02         -0.5449
 138       6.293e+00      -1.114e+01       5.602e-01           0.132           0.072           0.989       5.877e-02         -0.4431
 139       6.442e+00      -1.114e+01       5.362e-01           0.190           0.088           0.978       5.021e-02         -0.3214
 140       6.562e+00      -1.114e+01       5.099e-01           0.243           0.102           0.965       3.862e-02         -0.1737
 141       6.647e+00      -1.114e+01       4.873e-01           0.281           0.111           0.953       2.439e-02         -0.0586
 142       6.690e+00      -1.114e+01       4.720e-01           0.465           0.152           0.872       9.043e-03          0.1817
Strip 6
 143       6.594e+00      -1.074e+01       4.484e-01          -0.063          -0.062          -0.996       1.017e-02          0.1136
 144       6.548e+00      -1.074e+01       4.560e-01          -0.196          -0.093          -0.976       3.050e-02          0.3260
 145       6.459e+00      -1.074e+01       4.650e-01          -0.039          -0.054          -0.998       4.787e-02          0.4137
 146       6.331e+00      -1.074e+01       4.582e-01           0.123          -0.011          -0.992       6.350e-02          0.3727
 147       6.173e+00      -1.074e+01       4.309e-01           0.209           0.015          -0.978       7.632e-02          0.2530
 148       5.993e+00      -1.075e+01       3.949e-01           0.185           0.007          -0.983       8.328e-02          0.0978
 149       5.803e+00      -1.075e+01       3.685e-01           0.089          -0.026          -0.996       8.457e-02          0.0266
 150       5.612e+00      -1.075e+01       3.589e-01           0.010          -0.055          -0.998       8.182e-02          0.0771
 151       5.432e+00      -1.075e+01       3.618e-01          -0.045          -0.077          -0.996       7.474e-02          0.1841
 152       5.274e+00      -1.075e+01       3.729e-01          -0.099          -0.099          -0.990       6.350e-02          0.3284
 153       5.147e+00      -1.075e+01       3.901e-01          -0.177          -0.132          -0.975       4.887e-02          0.5293
 154       5.057e+00      -1.075e+01       4.141e-01          -0.373          -0.217          -0.902       3.287e-02          0.7864
 155       5.011e+00      -1.074e+01       4.486e-01          -0.804          -0.393          -0.446       2.212e-02          0.0408
 156       5.011e+00      -1.074e+01       4.893e-01          -0.805          -0.354           0.475       2.189e-02         -2.9601
 157       5.057e+00      -1.074e+01       5.238e-01          -0.377          -0.140           0.916       3.277e-02         -3.4474
 158       5.147e+00      -1.074e+01       5.481e-01          -0.180          -0.048           0.983       4.874e-02         -1.9596
 159       5.274e+00      -1.074e+01       5.652e-01          -0.097          -0.011           0.995       6.332e-02         -1.3119
 160       5.432e+00      -1.074e+01       5.761e-01          -0.044           0.011           0.999       7.456e-02         -0.9996
 161       5.612e+00      -1.074e+01       5.801e-01          -0.003           0.027           1.000       8.166e-02         -0.8116
 162       5.803e+00      -1.074e+01       5.769e-01           0.036           0.041           0.999       8.416e-02         -0.6844
 163       5.993e+00      -1.074e+01       5.660e-01           0.079           0.056           0.995       8.194e-02         -0.5821
 164       6.173e+00      -1.074e+01       5.472e-01           0.132           0.072           0.989       7.520e-02         -0.4704
 165       6.331e+00      -1.074e+01       5.218e-01           0.190           0.088           0.978       6.425e-02         -0.3375
 166       6.459e+00      -1.074e+01       4.939e-01           0.243           0.102           0.965       4.942e-02         -0.1799
 167       6.548e+00      -1.074e+01       4.701e-01           0.281           0.111           0.953       3.121e-02         -0.0571
 168       6.594e+00      -1.074e+01       4.538e-01           0.465           0.152           0.872       1.157e-02          0.1847
Strip 7
 169       6.480e+00      -1.027e+01       4.265e-01          -0.063          -0.062          -0.996       1.264e-02          0.1202
 170       6.431e+00      -1.027e+01       4.346e-01          -0.196          -0.093          -0.976       3.790e-02          0.3355
 171       6.336e+00      -1.027e+01       4.442e-01          -0.039          -0.054          -0.998       5.947e-02          0.4256
 172       6.200e+00      -1.027e+01       4.369e-01           0.123          -0.011          -0.992       7.889e-02          0.3864
 173       6.032e+00      -1.027e+01       4.079e-01           0.209           0.015          -0.978       9.480e-02          0.2688
 174       5.840e+00      -1.028e+01       3.694e-01           0.185           0.007          -0.983       1.034e-01          0.1162
 175       5.637e+00      -1.028e+01       3.413e-01           0.089          -0.026          -0.996       1.051e-01          0.0472
 176       5.433e+00      -1.028e+01       3.311e-01           0.010          -0.055          -0.998       1.017e-01          0.0984
 177       5.242e+00      -1.028e+01       3.342e-01          -0.045          -0.077          -0.996       9.286e-02          0.2047
 178       5.073e+00      -1.028e+01       3.460e-01          -0.099          -0.099          -0.990       7.891e-02          0.3475
 179       4.937e+00      -1.028e+01       3.643e-01          -0.177          -0.132          -0.975       6.073e-02          0.5464
 180       4.842e+00      -1.027e+01       3.899e-01          -0.373          -0.217          -0.902       4.086e-02          0.7936
 181       4.793e+00      -1.027e+01       4.267e-01          -0.803          -0.393          -0.447       2.749e-02          0.0030
 182       4.793e+00      -1.027e+01       4.701e-01          -0.806          -0.354           0.474       2.718e-02         -3.0578
 183       4.842e+00      -1.027e+01       5.069e-01          -0.377          -0.140           0.915       4.069e-02         -3.5310
 184       4.937e+00      -1.027e+01       5.328e-01          -0.180          -0.048           0.983       6.054e-02         -2.0070
 185       5.073e+00      -1.027e+01       5.511e-01          -0.097          -0.011           0.995       7.865e-02         -1.3477
 186       5.242e+00      -1.027e+01       5.626e-01          -0.044           0.011           0.999       9.263e-02         -1.0312
 187       5.433e+00      -1.027e+01       5.669e-01          -0.003           0.027           1.000       1.015e-01         -0.8409
 188       5.637e+00      -1.027e+01       5.635e-01           0.036           0.041           0.999       1.046e-01         -0.7113
 189       5.840e+00      -1.027e+01       5.519e-01           0.079           0.056           0.995       1.018e-01         -0.6052
 190       6.032e+00      -1.027e+01       5.318e-01           0.132           0.072           0.989       9.344e-02         -0.4881
 191       6.200e+00      -1.027e+01       5.047e-01           0.190           0.088           0.978       7.984e-02         -0.3490
 192       6.336e+00      -1.027e+01       4.750e-01           0.243           0.102           0.965       6.141e-02         -0.1858
 193       6.431e+00      -1.027e+01       4.496e-01           0.281           0.111           0.953       3.878e-02         -0.0582
 194       6.480e+00      -1.027e+01       4.323e-01           0.464           0.152           0.872       1.438e-02          0.1846
Strip 8
 195       6.349e+00      -9.733e+00       4.013e-01          -0.063          -0.062          -0.996       1.537e-02          0.1238
 196       6.297e+00      -9.733e+00       4.100e-01          -0.196          -0.093          -0.976       4.609e-02          0.3408
 197       6.195e+00      -9.732e+00       4.203e-01          -0.039          -0.054          -0.998       7.231e-02          0.4324
 198       6.050e+00      -9.733e+00       4.125e-01           0.123          -0.011          -0.992       9.590e-02          0.3943
 199       5.869e+00      -9.733e+00       3.814e-01           0.209           0.015          -0.978       1.152e-01          0.2778
 200       5.664e+00      -9.734e+00       3.402e-01           0.185           0.007          -0.983       1.258e-01          0.1265
 201       5.446e+00      -9.735e+00       3.101e-01           0.089          -0.026          -0.996       1.277e-01          0.0585
 202       5.228e+00      -9.736e+00       2.991e-01           0.010          -0.055          -0.998       1.236e-01          0.1095
 203       5.023e+00      -9.735e+00       3.024e-01          -0.045          -0.077          -0.996       1.129e-01          0.2149
 204       4.843e+00      -9.735e+00       3.151e-01          -0.099          -0.099          -0.990       9.595e-02          0.3565
 205       4.697e+00      -9.735e+00       3.347e-01          -0.177          -0.132          -0.975       7.386e-02          0.5537
 206       4.595e+00      -9.734e+00       3.622e-01          -0.373          -0.217          -0.902       4.970e-02          0.7969
 207       4.543e+00      -9.733e+00       4.016e-01          -0.803          -0.393          -0.448       3.345e-02         -0.0070
 208       4.543e+00      -9.732e+00       4.481e-01          -0.806          -0.355           0.473       3.303e-02         -3.0911
 209       4.595e+00      -9.731e+00       4.874e-01          -0.378          -0.140           0.915       4.944e-02         -3.5628
 210       4.697e+00      -9.730e+00       5.152e-01          -0.180          -0.048           0.983       7.359e-02         -2.0262
 211       4.843e+00      -9.729e+00       5.348e-01          -0.097          -0.011           0.995       9.562e-02         -1.3636
 212       5.023e+00      -9.729e+00       5.472e-01          -0.044           0.011           0.999       1.126e-01         -1.0462
 213       5.228e+00      -9.729e+00       5.518e-01          -0.003           0.027           1.000       1.234e-01         -0.8556
 214       5.446e+00      -9.729e+00       5.481e-01           0.036           0.041           0.999       1.271e-01         -0.7252
 215       5.664e+00      -9.729e+00       5.357e-01           0.079           0.056           0.995       1.238e-01         -0.6175
 216       5.869e+00      -9.730e+00       5.141e-01           0.132           0.072           0.989       1.136e-01         -0.4979
 217       6.050e+00      -9.731e+00       4.851e-01           0.190           0.088           0.978       9.709e-02         -0.3555
 218       6.195e+00      -9.732e+00       4.533e-01           0.243           0.102           0.965       7.468e-02         -0.1893
 219       6.297e+00      -9.732e+00       4.261e-01           0.280           0.111           0.953       4.716e-02         -0.0592
 220       6.349e+00      -9.733e+00       4.075e-01           0.464           0.152           0.872       1.749e-02          0.1840
Strip 9
 221       6.203e+00      -9.126e+00       3.730e-01          -0.063          -0.062          -0.996       1.837e-02          0.1260
 222       6.146e+00      -9.126e+00       3.823e-01          -0.196          -0.093          -0.976       5.509e-02          0.3439
 223       6.037e+00      -9.125e+00       3.934e-01          -0.039          -0.054          -0.998       8.643e-02          0.4363
 224       5.880e+00      -9.126e+00       3.851e-01           0.123          -0.011          -0.992       1.146e-01          0.3988
 225       5.686e+00      -9.126e+00       3.516e-01           0.209           0.015          -0.978       1.377e-01          0.2827
 226       5.466e+00      -9.127e+00       3.074e-01           0.185           0.007          -0.983       1.503e-01          0.1316
 227       5.232e+00      -9.128e+00       2.750e-01           0.089          -0.026          -0.996       1.526e-01          0.0633
 228       4.998e+00      -9.128e+00       2.632e-01           0.010          -0.055          -0.998       1.477e-01          0.1137
 229       4.777e+00      -9.128e+00       2.668e-01          -0.045          -0.077          -0.996       1.350e-01          0.2182
 230       4.583e+00      -9.128e+00       2.804e-01          -0.099          -0.099          -0.990       1.147e-01          0.3584
 231       4.427e+00      -9.127e+00       3.014e-01          -0.177          -0.132          -0.975       8.830e-02          0.5543
 232       4.317e+00      -9.127e+00       3.310e-01          -0.373          -0.217          -0.902       5.943e-02          0.7979
 233       4.261e+00      -9.126e+00       3.733e-01          -0.802          -0.393          -0.449       4.000e-02          0.0051
 234       4.261e+00      -9.125e+00       4.233e-01          -0.807          -0.355           0.472       3.945e-02         -3.0735
 235       4.317e+00      -9.124e+00       4.656e-01          -0.378          -0.140           0.915       5.906e-02         -3.5543
 236       4.427e+00      -9.123e+00       4.954e-01          -0.180          -0.048           0.983       8.793e-02         -2.0244
 237       4.583e+00      -9.123e+00       5.165e-01          -0.097          -0.011           0.995       1.143e-01         -1.3651
 238       4.777e+00      -9.122e+00       5.298e-01          -0.044           0.011           0.999       1.346e-01         -1.0496
 239       4.998e+00      -9.122e+00       5.347e-01          -0.003           0.027           1.000       1.474e-01         -0.8602
 240       5.232e+00      -9.122e+00       5.308e-01           0.036           0.041           0.999       1.520e-01         -0.7304
 241       5.466e+00      -9.123e+00       5.174e-01           0.079           0.056           0.995       1.480e-01         -0.6225
 242       5.686e+00      -9.123e+00       4.943e-01           0.132           0.072           0.989       1.358e-01         -0.5019
 243       5.880e+00      -9.124e+00       4.631e-01           0.190           0.088           0.978       1.161e-01         -0.3582
 244       6.037e+00      -9.125e+00       4.289e-01           0.243           0.102           0.965       8.928e-02         -0.1909
 245       6.146e+00      -9.125e+00       3.996e-01           0.280           0.111           0.953       5.638e-02         -0.0596
 246       6.203e+00      -9.126e+00       3.797e-01           0.464           0.152           0.873       2.091e-02          0.1837
Strip 10
 247       6.041e+00      -8.456e+00       3.418e-01          -0.063          -0.062          -0.996       2.163e-02          0.1270
 248       5.980e+00      -8.456e+00       3.519e-01          -0.196          -0.093          -0.976       6.489e-02          0.3457
 249       5.862e+00      -8.456e+00       3.638e-01          -0.039          -0.054          -0.998       1.018e-01          0.4386
 250       5.694e+00      -8.456e+00       3.548e-01           0.123          -0.011          -0.992       1.350e-01          0.4012
 251       5.485e+00      -8.457e+00       3.188e-01           0.209           0.015          -0.978       1.622e-01          0.2849
 252       5.248e+00      -8.458e+00       2.712e-01           0.185           0.007          -0.983       1.769e-01          0.1331
 253       4.996e+00      -8.458e+00       2.363e-01           0.089          -0.026          -0.996       1.798e-01          0.0639
 254       4.744e+00      -8.459e+00       2.236e-01           0.010          -0.055          -0.998       1.740e-01          0.1134
 255       4.506e+00      -8.459e+00       2.274e-01          -0.045          -0.077          -0.996       1.590e-01          0.2166
 256       4.298e+00      -8.458e+00       2.421e-01          -0.099          -0.099          -0.990       1.351e-01          0.3553
 257       4.129e+00      -8.458e+00       2.648e-01          -0.177          -0.132          -0.975       1.040e-01          0.5499
 258       4.011e+00      -8.457e+00       2.966e-01          -0.373          -0.217          -0.902       7.003e-02          0.7971
 259       3.951e+00      -8.456e+00       3.422e-01          -0.802          -0.393          -0.450       4.714e-02          0.0342
 260       3.951e+00      -8.455e+00       3.960e-01          -0.807          -0.355           0.471       4.644e-02         -3.0173
 261       4.011e+00      -8.454e+00       4.415e-01          -0.378          -0.140           0.915       6.953e-02         -3.5155
 262       4.129e+00      -8.454e+00       4.736e-01          -0.180          -0.048           0.982       1.035e-01         -2.0068
 263       4.298e+00      -8.453e+00       4.963e-01          -0.097          -0.011           0.995       1.346e-01         -1.3560
 264       4.506e+00      -8.453e+00       5.106e-01          -0.044           0.011           0.999       1.585e-01         -1.0447
 265       4.744e+00      -8.453e+00       5.160e-01          -0.003           0.027           1.000       1.736e-01         -0.8578
 266       4.996e+00      -8.453e+00       5.117e-01           0.036           0.041           0.999       1.790e-01         -0.7296
 267       5.248e+00      -8.453e+00       4.973e-01           0.079           0.056           0.995       1.743e-01         -0.6226
 268       5.485e+00      -8.454e+00       4.724e-01           0.132           0.072           0.989       1.600e-01         -0.5022
 269       5.694e+00      -8.455e+00       4.388e-01           0.190           0.088           0.978       1.367e-01         -0.3584
 270       5.862e+00      -8.455e+00       4.021e-01           0.243           0.102           0.965       1.052e-01         -0.1910
 271       5.980e+00      -8.456e+00       3.705e-01           0.280           0.111           0.953       6.641e-02         -0.0595
 272       6.041e+00      -8.456e+00       3.490e-01           0.464           0.152           0.873       2.464e-02          0.1833
Strip 11
 273       5.865e+00      -7.729e+00       3.080e-01          -0.063          -0.062          -0.996       2.515e-02          0.1275
 274       5.800e+00      -7.729e+00       3.188e-01          -0.196          -0.093          -0.976       7.545e-02          0.3466
 275       5.672e+00      -7.729e+00       3.316e-01          -0.039          -0.054          -0.998       1.183e-01          0.4398
 276       5.491e+00      -7.729e+00       3.220e-01           0.123          -0.011          -0.992       1.569e-01          0.4024
 277       5.266e+00      -7.730e+00       2.832e-01           0.209           0.015          -0.978       1.885e-01          0.2854
 278       5.011e+00      -7.730e+00       2.318e-01           0.185           0.007          -0.983       2.057e-01          0.1322
 279       4.739e+00      -7.731e+00       1.943e-01           0.089          -0.026          -0.996       2.089e-01          0.0615
 280       4.468e+00      -7.731e+00       1.806e-01           0.010          -0.055          -0.998       2.022e-01          0.1096
 281       4.212e+00      -7.731e+00       1.847e-01          -0.045          -0.077          -0.996       1.848e-01          0.2115
 282       3.987e+00      -7.731e+00       2.005e-01          -0.099          -0.099          -0.990       1.571e-01          0.3485
 283       3.806e+00      -7.731e+00       2.250e-01          -0.177          -0.132          -0.975       1.210e-01          0.5416
 284       3.679e+00      -7.730e+00       2.592e-01          -0.372          -0.217          -0.902       8.145e-02          0.7948
 285       3.613e+00      -7.729e+00       3.084e-01          -0.802          -0.393          -0.451       5.482e-02          0.0758
 286       3.613e+00      -7.728e+00       3.663e-01          -0.808          -0.355           0.470       5.396e-02         -2.9306
 287       3.679e+00      -7.727e+00       4.154e-01          -0.378          -0.140           0.915       8.079e-02         -3.4524
 288       3.806e+00      -7.727e+00       4.499e-01          -0.180          -0.048           0.982       1.203e-01         -1.9768
 289       3.987e+00      -7.726e+00       4.744e-01          -0.097          -0.011           0.995       1.564e-01         -1.3389
 290       4.212e+00      -7.726e+00       4.898e-01          -0.044           0.011           0.999       1.843e-01         -1.0338
 291       4.468e+00      -7.726e+00       4.956e-01          -0.003           0.027           1.000       2.018e-01         -0.8506
 292       4.739e+00      -7.726e+00       4.910e-01           0.036           0.041           0.999       2.081e-01         -0.7247
 293       5.011e+00      -7.726e+00       4.755e-01           0.079           0.056           0.995       2.026e-01         -0.6192
 294       5.266e+00      -7.727e+00       4.487e-01           0.132           0.072           0.989       1.860e-01         -0.4999
 295       5.491e+00      -7.727e+00       4.125e-01           0.190           0.088           0.978       1.589e-01         -0.3568
 296       5.672e+00      -7.728e+00       3.729e-01           0.243           0.102           0.965       1.223e-01         -0.1900
 297       5.800e+00      -7.729e+00       3.389e-01           0.280           0.111           0.953       7.722e-02         -0.0590
 298       5.865e+00      -7.729e+00       3.157e-01           0.464           0.152           0.873       2.865e-02          0.1831
Strip 12
 299       5.676e+00      -6.949e+00       2.717e-01          -0.063          -0.062          -0.996       2.889e-02          0.1275
 300       5.606e+00      -6.949e+00       2.833e-01          -0.196          -0.093          -0.976       8.666e-02          0.3471
 301       5.469e+00      -6.949e+00       2.971e-01          -0.039          -0.054          -0.998       1.359e-01          0.4404
 302       5.274e+00      -6.949e+00       2.867e-01           0.123          -0.011          -0.992       1.802e-01          0.4028
 303       5.032e+00      -6.950e+00       2.449e-01           0.209           0.015          -0.978       2.164e-01          0.2848
 304       4.756e+00      -6.950e+00       1.896e-01           0.185           0.007          -0.983       2.362e-01          0.1297
 305       4.464e+00      -6.951e+00       1.492e-01           0.089          -0.026          -0.996       2.400e-01          0.0570
 306       4.172e+00      -6.951e+00       1.345e-01           0.010          -0.055          -0.998       2.323e-01          0.1034
 307       3.896e+00      -6.951e+00       1.389e-01          -0.045          -0.077          -0.996       2.123e-01          0.2035
 308       3.654e+00      -6.951e+00       1.559e-01          -0.099          -0.099          -0.990       1.804e-01          0.3387
 309       3.459e+00      -6.950e+00       1.822e-01          -0.177          -0.132          -0.975       1.389e-01          0.5301
 310       3.322e+00      -6.950e+00       2.191e-01          -0.372          -0.217          -0.903       9.358e-02          0.7906
 311       3.252e+00      -6.949e+00       2.721e-01          -0.801          -0.393          -0.452       6.299e-02          0.1267
 312       3.252e+00      -6.948e+00       3.345e-01          -0.808          -0.356           0.470       6.195e-02         -2.8191
 313       3.322e+00      -6.948e+00       3.873e-01          -0.378          -0.140           0.915       9.275e-02         -3.3691
 314       3.459e+00      -6.947e+00       4.246e-01          -0.180          -0.048           0.982       1.382e-01         -1.9371
 315       3.654e+00      -6.947e+00       4.508e-01          -0.097          -0.011           0.995       1.796e-01         -1.3155
 316       3.896e+00      -6.946e+00       4.675e-01          -0.044           0.011           0.999       2.116e-01         -1.0182
 317       4.172e+00      -6.946e+00       4.737e-01          -0.003           0.027           1.000       2.318e-01         -0.8395
 318       4.464e+00      -6.946e+00       4.688e-01           0.036           0.041           0.999       2.390e-01         -0.7167
 319       4.756e+00      -6.947e+00       4.521e-01           0.079           0.056           0.995       2.327e-01         -0.6135
 320       5.032e+00      -6.947e+00       4.232e-01           0.132           0.072           0.989       2.137e-01         -0.4957
 321       5.274e+00      -6.948e+00       3.842e-01           0.189           0.088           0.978       1.826e-01         -0.3540
 322       5.469e+00      -6.948e+00       3.415e-01           0.243           0.102           0.965       1.405e-01         -0.1884
 323       5.606e+00      -6.949e+00       3.049e-01           0.280           0.111           0.953       8.870e-02         -0.0583
 324       5.676e+00      -6.949e+00       2.800e-01           0.464           0.152           0.873       3.292e-02          0.1828
Strip 13
 325       5.476e+00      -6.122e+00       2.331e-01          -0.063          -0.062          -0.996       3.280e-02          0.1273
 326       5.400e+00      -6.122e+00       2.457e-01          -0.196          -0.093          -0.976       9.842e-02          0.3472
 327       5.253e+00      -6.121e+00       2.605e-01          -0.039          -0.054          -0.998       1.543e-01          0.4405
 328       5.043e+00      -6.122e+00       2.494e-01           0.123          -0.011          -0.992       2.046e-01          0.4026
 329       4.783e+00      -6.122e+00       2.044e-01           0.209           0.015          -0.978       2.457e-01          0.2834
 330       4.486e+00      -6.123e+00       1.449e-01           0.185           0.007          -0.983       2.681e-01          0.1259
 331       4.172e+00      -6.123e+00       1.014e-01           0.089          -0.026          -0.996       2.724e-01          0.0506
 332       3.858e+00      -6.123e+00       8.556e-02           0.010          -0.055          -0.998       2.637e-01          0.0951
 333       3.562e+00      -6.123e+00       9.031e-02          -0.045          -0.077          -0.996       2.410e-01          0.1933
 334       3.301e+00      -6.123e+00       1.086e-01          -0.099          -0.099          -0.990       2.049e-01          0.3263
 335       3.091e+00      -6.123e+00       1.369e-01          -0.177          -0.132          -0.975       1.578e-01          0.5155
 336       2.944e+00      -6.122e+00       1.766e-01          -0.372          -0.217          -0.903       1.063e-01          0.7843
 337       2.868e+00      -6.122e+00       2.336e-01          -0.801          -0.392          -0.453       7.156e-02          0.1848
 338       2.868e+00      -6.121e+00       3.007e-01          -0.808          -0.356           0.469       7.031e-02         -2.6871
 339       2.944e+00      -6.120e+00       3.576e-01          -0.378          -0.140           0.915       1.053e-01         -3.2689
 340       3.091e+00      -6.120e+00       3.976e-01          -0.180          -0.048           0.982       1.569e-01         -1.8888
 341       3.301e+00      -6.120e+00       4.259e-01          -0.097          -0.012           0.995       2.039e-01         -1.2868
 342       3.562e+00      -6.119e+00       4.438e-01          -0.044           0.011           0.999       2.403e-01         -0.9987
 343       3.858e+00      -6.119e+00       4.505e-01          -0.003           0.027           1.000       2.632e-01         -0.8255
 344       4.172e+00      -6.119e+00       4.452e-01           0.036           0.041           0.999       2.714e-01         -0.7064
 345       4.486e+00      -6.120e+00       4.272e-01           0.079           0.056           0.995       2.643e-01         -0.6058
 346       4.783e+00      -6.120e+00       3.961e-01           0.132           0.072           0.989       2.426e-01         -0.4902
 347       5.043e+00      -6.120e+00       3.542e-01           0.189           0.088           0.978       2.073e-01         -0.3503
 348       5.253e+00      -6.121e+00       3.083e-01           0.243           0.102           0.965       1.595e-01         -0.1863
 349       5.400e+00      -6.121e+00       2.689e-01           0.280           0.111           0.953       1.007e-01         -0.0575
 350       5.476e+00      -6.122e+00       2.421e-01           0.464           0.152           0.873       3.738e-02          0.1825
Strip 14
 351       5.266e+00      -5.252e+00       1.926e-01          -0.063          -0.062          -0.996       3.684e-02          0.1267
 352       5.185e+00      -5.252e+00       2.061e-01          -0.196          -0.093          -0.976       1.105e-01          0.3470
 353       5.027e+00      -5.252e+00       2.221e-01          -0.039          -0.054          -0.998       1.733e-01          0.4404
 354       4.801e+00      -5.252e+00       2.101e-01           0.123          -0.011          -0.992       2.297e-01          0.4020
 355       4.521e+00      -5.253e+00       1.618e-01           0.209           0.015          -0.978       2.759e-01          0.2813
 356       4.203e+00      -5.253e+00       9.787e-02           0.186           0.007          -0.983       3.011e-01          0.1211
 357       3.865e+00      -5.254e+00       5.118e-02           0.089          -0.026          -0.996       3.060e-01          0.0428
 358       3.528e+00      -5.254e+00       3.415e-02           0.010          -0.055          -0.998       2.962e-01          0.0850
 359       3.210e+00      -5.254e+00       3.926e-02          -0.045          -0.077          -0.996       2.707e-01          0.1810
 360       2.930e+00      -5.254e+00       5.889e-02          -0.099          -0.099          -0.990       2.301e-01          0.3113
 361       2.704e+00      -5.253e+00       8.932e-02          -0.177          -0.132          -0.975       1.773e-01          0.4979
 362       2.546e+00      -5.253e+00       1.319e-01          -0.372          -0.216          -0.903       1.194e-01          0.7753
 363       2.465e+00      -5.252e+00       1.931e-01          -0.800          -0.392          -0.453       8.040e-02          0.2487
 364       2.465e+00      -5.252e+00       2.652e-01          -0.809          -0.356           0.468       7.894e-02         -2.5358
 365       2.546e+00      -5.251e+00       3.263e-01          -0.379          -0.140           0.915       1.182e-01         -3.1523
 366       2.704e+00      -5.251e+00       3.693e-01          -0.180          -0.048           0.982       1.761e-01         -1.8323
 367       2.930e+00      -5.251e+00       3.997e-01          -0.097          -0.012           0.995       2.290e-01         -1.2530
 368       3.210e+00      -5.250e+00       4.189e-01          -0.044           0.011           0.999       2.698e-01         -0.9756
 369       3.528e+00      -5.250e+00       4.261e-01          -0.003           0.027           1.000       2.956e-01         -0.8088
 370       3.865e+00      -5.250e+00       4.204e-01           0.036           0.041           0.999       3.048e-01         -0.6940
 371       4.203e+00      -5.251e+00       4.011e-01           0.079           0.056           0.995       2.969e-01         -0.5966
 372       4.521e+00      -5.251e+00       3.677e-01           0.132           0.072           0.989       2.725e-01         -0.4835
 373       4.801e+00      -5.251e+00       3.227e-01           0.189           0.088           0.978       2.329e-01         -0.3459
 374       5.027e+00      -5.252e+00       2.734e-01           0.243           0.102           0.965       1.792e-01         -0.1838
 375       5.185e+00      -5.252e+00       2.311e-01           0.280           0.111           0.954       1.132e-01         -0.0567
 376       5.266e+00      -5.252e+00       2.023e-01           0.464           0.152           0.873       4.200e-02          0.1819
Strip 15
 377       5.047e+00      -4.347e+00       1.505e-01          -0.063          -0.062          -0.996       4.094e-02          0.1260
 378       4.960e+00      -4.347e+00       1.649e-01          -0.196          -0.093          -0.976       1.229e-01          0.3467
 379       4.790e+00      -4.347e+00       1.821e-01          -0.039          -0.054          -0.998       1.926e-01          0.4401
 380       4.549e+00      -4.347e+00       1.692e-01           0.123          -0.011          -0.992       2.553e-01          0.4011
 381       4.249e+00      -4.347e+00       1.174e-01           0.209           0.015          -0.978       3.066e-01          0.2787
 382       3.908e+00      -4.348e+00       4.891e-02           0.186           0.007          -0.983       3.346e-01          0.1152
 383       3.546e+00      -4.348e+00      -1.130e-03           0.089          -0.026          -0.996       3.400e-01          0.0336
 384       3.184e+00      -4.348e+00      -1.938e-02           0.010          -0.055          -0.998       3.292e-01          0.0731
 385       2.843e+00      -4.348e+00      -1.391e-02          -0.045          -0.077          -0.996       3.009e-01          0.1665
 386       2.543e+00      -4.348e+00       7.138e-03          -0.099          -0.099          -0.990       2.558e-01          0.2937
 387       2.302e+00      -4.348e+00       3.975e-02          -0.177          -0.132          -0.975       1.970e-01          0.4769
 388       2.132e+00      -4.348e+00       8.544e-02          -0.372          -0.216          -0.903       1.328e-01          0.7628
 389       2.045e+00      -4.347e+00       1.510e-01          -0.800          -0.392          -0.454       8.938e-02          0.3178
 390       2.045e+00      -4.347e+00       2.283e-01          -0.809          -0.356           0.468       8.770e-02         -2.3647
 391       2.132e+00      -4.346e+00       2.937e-01          -0.379          -0.140           0.915       1.313e-01         -3.0186
 392       2.302e+00      -4.346e+00       3.399e-01          -0.180          -0.048           0.982       1.957e-01         -1.7673
 393       2.543e+00      -4.346e+00       3.724e-01          -0.097          -0.012           0.995       2.545e-01         -1.2140
 394       2.843e+00      -4.346e+00       3.930e-01          -0.044           0.011           0.999       2.999e-01         -0.9491
 395       3.184e+00      -4.346e+00       4.007e-01          -0.003           0.027           1.000       3.285e-01         -0.7897
 396       3.546e+00      -4.346e+00       3.946e-01           0.036           0.041           0.999       3.387e-01         -0.6799
 397       3.908e+00      -4.346e+00       3.739e-01           0.079           0.056           0.995       3.299e-01         -0.5862
 398       4.249e+00      -4.346e+00       3.381e-01           0.132           0.072           0.989       3.029e-01         -0.4762
 399       4.549e+00      -4.346e+00       2.899e-01           0.189           0.088           0.978       2.589e-01         -0.3411
 400       4.790e+00      -4.347e+00       2.370e-01           0.243           0.102           0.965       1.992e-01         -0.1813
 401       4.960e+00      -4.347e+00       1.917e-01           0.280           0.111           0.954       1.258e-01         -0.0559
 402       5.047e+00      -4.347e+00       1.608e-01           0.463           0.152           0.873       4.668e-02          0.1812
Strip 16
 403       4.821e+00      -3.412e+00       1.070e-01          -0.063          -0.062          -0.996       4.503e-02          0.1246
 404       4.728e+00      -3.412e+00       1.224e-01          -0.196          -0.093          -0.976       1.351e-01          0.3462
 405       4.547e+00      -3.412e+00       1.407e-01          -0.039          -0.054          -0.998       2.119e-01          0.4397
 406       4.288e+00      -3.412e+00       1.269e-01           0.123          -0.011          -0.992       2.808e-01          0.4000
 407       3.968e+00      -3.413e+00       7.156e-02           0.209           0.015          -0.978       3.372e-01          0.2755
 408       3.603e+00      -3.413e+00      -1.648e-03           0.186           0.007          -0.983       3.679e-01          0.1084
 409       3.216e+00      -3.413e+00      -5.515e-02           0.089          -0.026          -0.996       3.739e-01          0.0229
 410       2.829e+00      -3.413e+00      -7.467e-02           0.010          -0.055          -0.998       3.620e-01          0.0594
 411       2.465e+00      -3.413e+00      -6.881e-02          -0.045          -0.077          -0.996       3.309e-01          0.1499
 412       2.144e+00      -3.413e+00      -4.631e-02          -0.099          -0.099          -0.990       2.814e-01          0.2733
 413       1.886e+00      -3.413e+00      -1.144e-02          -0.177          -0.132          -0.975       2.167e-01          0.4520
 414       1.705e+00      -3.413e+00       3.740e-02          -0.372          -0.216          -0.903       1.461e-01          0.7457
 415       1.612e+00      -3.412e+00       1.075e-01          -0.800          -0.392          -0.454       9.834e-02          0.3924
 416       1.612e+00      -3.412e+00       1.901e-01          -0.809          -0.356           0.467       9.643e-02         -2.1700
 417       1.705e+00      -3.412e+00       2.601e-01          -0.379          -0.140           0.915       1.444e-01         -2.8634
 418       1.886e+00      -3.411e+00       3.094e-01          -0.180          -0.048           0.982       2.152e-01         -1.6912
 419       2.144e+00      -3.411e+00       3.442e-01          -0.097          -0.012           0.995       2.799e-01         -1.1687
 420       2.465e+00      -3.411e+00       3.663e-01          -0.044           0.011           0.999       3.298e-01         -0.9187
 421       2.829e+00      -3.411e+00       3.745e-01          -0.003           0.027           1.000       3.614e-01         -0.7683
 422       3.216e+00      -3.411e+00       3.680e-01           0.036           0.041           0.999       3.726e-01         -0.6646
 423       3.603e+00      -3.411e+00       3.458e-01           0.079           0.056           0.995       3.629e-01         -0.5754
 424       3.968e+00      -3.411e+00       3.076e-01           0.132           0.072           0.989       3.332e-01         -0.4688
 425       4.288e+00      -3.412e+00       2.560e-01           0.189           0.088           0.978       2.847e-01         -0.3364
 426       4.547e+00      -3.412e+00       1.995e-01           0.243           0.102           0.965       2.191e-01         -0.1789
 427       4.728e+00      -3.412e+00       1.510e-01           0.280           0.111           0.954       1.384e-01         -0.0556
 428       4.821e+00      -3.412e+00       1.180e-01           0.463           0.152           0.873       5.135e-02          0.1796
Strip 17
 429       4.589e+00      -2.454e+00       6.235e-02          -0.063          -0.062          -0.996       4.904e-02          0.1228
 430       4.490e+00      -2.454e+00       7.880e-02          -0.196          -0.093          -0.976       1.472e-01          0.3453
 431       4.297e+00      -2.454e+00       9.833e-02          -0.039          -0.054          -0.998       2.307e-01          0.4390
 432       4.021e+00      -2.454e+00       8.364e-02           0.123          -0.011          -0.992       3.057e-01          0.3986
 433       3.679e+00      -2.454e+00       2.459e-02           0.209           0.015          -0.978       3.671e-01          0.2718
 434       3.291e+00      -2.455e+00      -5.347e-02           0.186           0.007          -0.983       4.006e-01          0.1005
 435       2.878e+00      -2.455e+00      -1.105e-01           0.089          -0.026          -0.996       4.071e-01          0.0108
 436       2.466e+00      -2.455e+00      -1.313e-01           0.010          -0.055          -0.998       3.942e-01          0.0442
 437       2.077e+00      -2.455e+00      -1.251e-01          -0.045          -0.077          -0.996       3.603e-01          0.1313
 438       1.735e+00      -2.455e+00      -1.011e-01          -0.099          -0.099          -0.990       3.064e-01          0.2501
 439       1.460e+00      -2.455e+00      -6.391e-02          -0.177          -0.132          -0.975       2.360e-01          0.4225
 440       1.267e+00      -2.454e+00      -1.183e-02          -0.372          -0.216          -0.903       1.591e-01          0.7224
 441       1.167e+00      -2.454e+00       6.292e-02          -0.800          -0.392          -0.455       1.071e-01          0.4741
 442       1.167e+00      -2.454e+00       1.510e-01          -0.809          -0.356           0.467       1.050e-01         -1.9415
 443       1.267e+00      -2.454e+00       2.257e-01          -0.379          -0.140           0.915       1.572e-01         -2.6764
 444       1.460e+00      -2.453e+00       2.782e-01          -0.180          -0.048           0.982       2.343e-01         -1.5991
 445       1.735e+00      -2.453e+00       3.154e-01          -0.097          -0.012           0.995       3.047e-01         -1.1143
 446       2.077e+00      -2.453e+00       3.389e-01          -0.044           0.011           0.999       3.591e-01         -0.8833
 447       2.466e+00      -2.453e+00       3.476e-01          -0.003           0.027           1.000       3.935e-01         -0.7448
 448       2.878e+00      -2.453e+00       3.407e-01           0.036           0.041           0.999       4.057e-01         -0.6492
 449       3.291e+00      -2.453e+00       3.171e-01           0.079           0.056           0.995       3.951e-01         -0.5656
 450       3.679e+00      -2.453e+00       2.763e-01           0.132           0.072           0.989       3.628e-01         -0.4629
 451       4.021e+00      -2.454e+00       2.213e-01           0.189           0.088           0.978       3.101e-01         -0.3333
 452       4.297e+00      -2.454e+00       1.610e-01           0.243           0.102           0.965       2.386e-01         -0.1780
 453       4.490e+00      -2.454e+00       1.093e-01           0.280           0.111           0.954       1.507e-01         -0.0564
 454       4.589e+00      -2.454e+00       7.413e-02           0.463           0.152           0.873       5.592e-02          0.1772
Strip 18
 455       4.353e+00      -1.479e+00       1.695e-02          -0.063          -0.062          -0.996       5.286e-02          0.1201
 456       4.248e+00      -1.479e+00       3.444e-02          -0.195          -0.093          -0.976       1.587e-01          0.3439
 457       4.042e+00      -1.479e+00       5.520e-02          -0.039          -0.054          -0.998       2.487e-01          0.4378
 458       3.750e+00      -1.479e+00       3.959e-02           0.123          -0.011          -0.992       3.295e-01          0.3963
 459       3.386e+00      -1.479e+00      -2.320e-02           0.209           0.015          -0.978       3.957e-01          0.2666
 460       2.973e+00      -1.479e+00      -1.062e-01           0.186           0.007          -0.983       4.318e-01          0.0908
 461       2.534e+00      -1.480e+00      -1.669e-01           0.089          -0.026          -0.996       4.389e-01         -0.0024
 462       2.096e+00      -1.480e+00      -1.890e-01           0.010          -0.055          -0.998       4.249e-01          0.0289
 463       1.683e+00      -1.480e+00      -1.824e-01          -0.045          -0.077          -0.996       3.884e-01          0.1129
 464       1.319e+00      -1.480e+00      -1.568e-01          -0.099          -0.099          -0.990       3.303e-01          0.2259
 465       1.026e+00      -1.480e+00      -1.173e-01          -0.177          -0.132          -0.975       2.544e-01          0.3889
 466       8.209e-01      -1.479e+00      -6.192e-02          -0.372          -0.216          -0.903       1.715e-01          0.6912
 467       7.152e-01      -1.479e+00       1.756e-02          -0.799          -0.392          -0.455       1.155e-01          0.5701
 468       7.152e-01      -1.479e+00       1.112e-01          -0.810          -0.356           0.466       1.131e-01         -1.6524
 469       8.209e-01      -1.479e+00       1.906e-01          -0.379          -0.140           0.915       1.694e-01         -2.4292
 470       1.026e+00      -1.479e+00       2.465e-01          -0.180          -0.048           0.982       2.526e-01         -1.4758
 471       1.319e+00      -1.479e+00       2.860e-01          -0.097          -0.012           0.995       3.285e-01         -1.0433
 472       1.683e+00      -1.479e+00       3.110e-01          -0.044           0.011           0.999       3.871e-01         -0.8402
 473       2.096e+00      -1.479e+00       3.203e-01          -0.003           0.027           1.000       4.241e-01         -0.7197
 474       2.534e+00      -1.479e+00       3.129e-01           0.036           0.041           0.999       4.373e-01         -0.6365
 475       2.973e+00      -1.479e+00       2.878e-01           0.079           0.056           0.995       4.260e-01         -0.5612
 476       3.386e+00      -1.479e+00       2.444e-01           0.132           0.072           0.989       3.911e-01         -0.4632
 477       3.750e+00      -1.479e+00       1.859e-01           0.189           0.088           0.978       3.343e-01         -0.3356
 478       4.042e+00      -1.479e+00       1.218e-01           0.243           0.102           0.965       2.572e-01         -0.1808
 479       4.248e+00      -1.479e+00       6.687e-02           0.280           0.111           0.954       1.624e-01         -0.0600
 480       4.353e+00      -1.479e+00       2.948e-02           0.463           0.152           0.873       6.029e-02          0.1727
Strip 19
 481       4.115e+00      -4.942e-01      -2.892e-02          -0.063          -0.062          -0.996       5.642e-02          0.1170
 482       4.003e+00      -4.942e-01      -1.038e-02          -0.195          -0.093          -0.976       1.694e-01          0.3426
 483       3.786e+00      -4.942e-01       1.164e-02          -0.039          -0.054          -0.998       2.655e-01          0.4358
 484       3.475e+00      -4.942e-01      -4.920e-03           0.123          -0.011          -0.992       3.517e-01          0.3888
 485       3.090e+00      -4.942e-01      -7.148e-02           0.209           0.015          -0.978       4.223e-01          0.2513
 486       2.652e+00      -4.943e-01      -1.595e-01           0.186           0.007          -0.983       4.608e-01          0.0719
 487       2.187e+00      -4.943e-01      -2.238e-01           0.089          -0.026          -0.996       4.684e-01         -0.0161
 488       1.722e+00      -4.943e-01      -2.472e-01           0.010          -0.055          -0.998       4.536e-01          0.0234
 489       1.284e+00      -4.943e-01      -2.402e-01          -0.045          -0.077          -0.996       4.146e-01          0.1108
 490       8.987e-01      -4.943e-01      -2.132e-01          -0.099          -0.099          -0.990       3.525e-01          0.2183
 491       5.881e-01      -4.943e-01      -1.712e-01          -0.177          -0.132          -0.975       2.716e-01          0.3675
 492       3.705e-01      -4.943e-01      -1.125e-01          -0.371          -0.216          -0.903       1.831e-01          0.6529
 493       2.584e-01      -4.942e-01      -2.827e-02          -0.799          -0.392          -0.456       1.233e-01          0.6874
 494       2.584e-01      -4.941e-01       7.104e-02          -0.810          -0.357           0.466       1.207e-01         -1.1985
 495       3.705e-01      -4.941e-01       1.552e-01          -0.379          -0.140           0.915       1.808e-01         -1.9907
 496       5.881e-01      -4.941e-01       2.144e-01          -0.180          -0.048           0.982       2.695e-01         -1.2477
 497       8.987e-01      -4.940e-01       2.563e-01          -0.097          -0.012           0.995       3.506e-01         -0.9322
 498       1.284e+00      -4.940e-01       2.828e-01          -0.044           0.011           0.999       4.131e-01         -0.7834
 499       1.722e+00      -4.940e-01       2.926e-01          -0.003           0.027           1.000       4.527e-01         -0.6963
 500       2.187e+00      -4.940e-01       2.848e-01           0.036           0.041           0.999       4.668e-01         -0.6360
 501       2.652e+00      -4.940e-01       2.582e-01           0.079           0.056           0.995       4.547e-01         -0.5767
 502       3.090e+00      -4.941e-01       2.122e-01           0.132           0.072           0.989       4.175e-01         -0.4868
 503       3.475e+00      -4.941e-01       1.502e-01           0.189           0.088           0.978       3.568e-01         -0.3587
 504       3.786e+00      -4.941e-01       8.228e-02           0.243           0.102           0.965       2.745e-01         -0.1988
 505       4.003e+00      -4.942e-01       2.400e-02           0.280           0.111           0.954       1.734e-01         -0.0721
 506       4.115e+00      -4.942e-01      -1.564e-02           0.463           0.152           0.873       6.436e-02          0.1635
Strip 20
 507       4.115e+00       4.942e-01      -2.892e-02          -0.063           0.062          -0.996       5.642e-02          0.1170
 508       4.003e+00       4.942e-01      -1.038e-02          -0.195           0.093          -0.976       1.694e-01          0.3426
 509       3.786e+00       4.942e-01       1.164e-02          -0.039           0.054          -0.998       2.655e-01          0.4358
 510       3.475e+00       4.942e-01      -4.920e-03           0.123           0.011          -0.992       3.517e-01          0.3888
 511       3.090e+00       4.942e-01      -7.148e-02           0.209          -0.015          -0.978       4.223e-01          0.2513
 512       2.652e+00       4.943e-01      -1.595e-01           0.186          -0.007          -0.983       4.608e-01          0.0719
 513       2.187e+00       4.943e-01      -2.238e-01           0.089           0.026          -0.996       4.684e-01         -0.0161
 514       1.722e+00       4.943e-01      -2.472e-01           0.010           0.055          -0.998       4.536e-01          0.0234
 515       1.284e+00       4.943e-01      -2.402e-01          -0.045           0.077          -0.996       4.146e-01          0.1108
 516       8.987e-01       4.943e-01      -2.132e-01          -0.099           0.099          -0.990       3.525e-01          0.2183
 517       5.881e-01       4.943e-01      -1.712e-01          -0.177           0.132          -0.975       2.716e-01          0.3675
 518       3.705e-01       4.943e-01      -1.125e-01          -0.371           0.216          -0.903       1.831e-01          0.6529
 519       2.584e-01       4.942e-01      -2.827e-02          -0.799           0.392          -0.456       1.233e-01          0.6874
 520       2.584e-01       4.941e-01       7.104e-02          -0.810           0.357           0.466       1.207e-01         -1.1985
 521       3.705e-01       4.941e-01       1.552e-01          -0.379           0.140           0.915       1.808e-01         -1.9907
 522       5.881e-01       4.941e-01       2.144e-01          -0.180           0.048           0.982       2.695e-01         -1.2477
 523       8.987e-01       4.940e-01       2.563e-01          -0.097           0.012           0.995       3.506e-01         -0.9322
 524       1.284e+00       4.940e-01       2.828e-01          -0.044          -0.011           0.999       4.131e-01         -0.7834
 525       1.722e+00       4.940e-01       2.926e-01          -0.003          -0.027           1.000       4.527e-01         -0.6963
 526       2.187e+00       4.940e-01       2.848e-01           0.036          -0.041           0.999       4.668e-01         -0.6360
 527       2.652e+00       4.940e-01       2.582e-01           0.079          -0.056           0.995       4.547e-01         -0.5767
 528       3.090e+00       4.941e-01       2.122e-01           0.132          -0.072           0.989       4.175e-01         -0.4868
 529       3.475e+00       4.941e-01       1.502e-01           0.189          -0.088           0.978       3.568e-01         -0.3587
 530       3.786e+00       4.941e-01       8.228e-02           0.243          -0.102           0.965       2.745e-01         -0.1988
 531       4.003e+00       4.942e-01       2.400e-02           0.280          -0.111           0.954       1.734e-01         -0.0721
 532       4.115e+00       4.942e-01      -1.564e-02           0.463          -0.152           0.873       6.436e-02          0.1635
Strip 21
 533       4.353e+00       1.479e+00       1.695e-02          -0.063           0.062          -0.996       5.286e-02          0.1201
 534       4.248e+00       1.479e+00       3.444e-02          -0.195           0.093          -0.976       1.587e-01          0.3439
 535       4.042e+00       1.479e+00       5.520e-02          -0.039           0.054          -0.998       2.487e-01          0.4378
 536       3.750e+00       1.479e+00       3.959e-02           0.123           0.011          -0.992       3.295e-01          0.3963
 537       3.386e+00       1.479e+00      -2.320e-02           0.209          -0.015          -0.978       3.957e-01          0.2666
 538       2.973e+00       1.479e+00      -1.062e-01           0.186          -0.007          -0.983       4.318e-01          0.0908
 539       2.534e+00       1.480e+00      -1.669e-01           0.089           0.026          -0.996       4.389e-01         -0.0024
 540       2.096e+00       1.480e+00      -1.890e-01           0.010           0.055          -0.998       4.249e-01          0.0289
 541       1.683e+00       1.480e+00      -1.824e-01          -0.045           0.077          -0.996       3.884e-01          0.1129
 542       1.319e+00       1.480e+00      -1.568e-01          -0.099           0.099          -0.990       3.303e-01          0.2259
 543       1.026e+00       1.480e+00      -1.173e-01          -0.177           0.132          -0.975       2.544e-01          0.3889
 544       8.209e-01       1.479e+00      -6.192e-02          -0.372           0.216          -0.903       1.715e-01          0.6912
 545       7.152e-01       1.479e+00       1.756e-02          -0.799           0.392          -0.455       1.155e-01          0.5701
 546       7.152e-01       1.479e+00       1.112e-01          -0.810           0.356           0.466       1.131e-01         -1.6524
 547       8.209e-01       1.479e+00       1.906e-01          -0.379           0.140           0.915       1.694e-01         -2.4292
 548       1.026e+00       1.479e+00       2.465e-01          -0.180           0.048           0.982       2.526e-01         -1.4758
 549       1.319e+00       1.479e+00       2.860e-01          -0.097           0.012           0.995       3.285e-01         -1.0433
 550       1.683e+00       1.479e+00       3.110e-01          -0.044          -0.011           0.999       3.871e-01         -0.8402
 551       2.096e+00       1.479e+00       3.203e-01          -0.003          -0.027           1.000       4.241e-01         -0.7197
 552       2.534e+00       1.479e+00       3.129e-01           0.036          -0.041           0.999       4.373e-01         -0.6365
 553       2.973e+00       1.479e+00       2.878e-01           0.079          -0.056           0.995       4.260e-01         -0.5612
 554       3.386e+00       1.479e+00       2.444e-01           0.132          -0.072           0.989       3.911e-01         -0.4632
 555       3.750e+00       1.479e+00       1.859e-01           0.189          -0.088           0.978       3.343e-01         -0.3356
 556       4.042e+00       1.479e+00       1.218e-01           0.243          -0.102           0.965       2.572e-01         -0.1808
 557       4.248e+00       1.479e+00       6.687e-02           0.280          -0.111           0.954       1.624e-01         -0.0600
 558       4.353e+00       1.479e+00       2.948e-02           0.463          -0.152           0.873       6.029e-02          0.1727
Strip 22
 559       4.589e+00       2.454e+00       6.235e-02          -0.063           0.062          -0.996       4.904e-02          0.1228
 560       4.490e+00       2.454e+00       7.880e-02          -0.196           0.093          -0.976       1.472e-01          0.3453
 561       4.297e+00       2.454e+00       9.833e-02          -0.039           0.054          -0.998       2.307e-01          0.4390
 562       4.021e+00       2.454e+00       8.364e-02           0.123           0.011          -0.992       3.057e-01          0.3986
 563       3.679e+00       2.454e+00       2.459e-02           0.209          -0.015          -0.978       3.671e-01          0.2718
 564       3.291e+00       2.455e+00      -5.347e-02           0.186          -0.007          -0.983       4.006e-01          0.1005
 565       2.878e+00       2.455e+00      -1.105e-01           0.089           0.026          -0.996       4.071e-01          0.0108
 566       2.466e+00       2.455e+00      -1.313e-01           0.010           0.055          -0.998       3.942e-01          0.0442
 567       2.077e+00       2.455e+00      -1.251e-01          -0.045           0.077          -0.996       3.603e-01          0.1313
 568       1.735e+00       2.455e+00      -1.011e-01          -0.099           0.099          -0.990       3.064e-01          0.2501
[...]
 852       5.612e+00       1.075e+01       3.589e-01           0.010           0.055          -0.998       8.182e-02          0.0771
 853       5.432e+00       1.075e+01       3.618e-01          -0.045           0.077          -0.996       7.474e-02          0.1841
 854       5.274e+00       1.075e+01       3.729e-01          -0.099           0.099          -0.990       6.350e-02          0.3284
 855       5.147e+00       1.075e+01       3.901e-01          -0.177           0.132          -0.975       4.887e-02          0.5293
 856       5.057e+00       1.075e+01       4.141e-01          -0.373           0.217          -0.902       3.287e-02          0.7864
 857       5.011e+00       1.074e+01       4.486e-01          -0.804           0.393          -0.446       2.212e-02          0.0408
 858       5.011e+00       1.074e+01       4.893e-01          -0.805           0.354           0.475       2.189e-02         -2.9601
 859       5.057e+00       1.074e+01       5.238e-01          -0.377           0.140           0.916       3.277e-02         -3.4474
 860       5.147e+00       1.074e+01       5.481e-01          -0.180           0.048           0.983       4.874e-02         -1.9596
 861       5.274e+00       1.074e+01       5.652e-01          -0.097           0.011           0.995       6.332e-02         -1.3119
 862       5.432e+00       1.074e+01       5.761e-01          -0.044          -0.011           0.999       7.456e-02         -0.9996
 863       5.612e+00       1.074e+01       5.801e-01          -0.003          -0.027           1.000       8.166e-02         -0.8116
 864       5.803e+00       1.074e+01       5.769e-01           0.036          -0.041           0.999       8.416e-02         -0.6844
 865       5.993e+00       1.074e+01       5.660e-01           0.079          -0.056           0.995       8.194e-02         -0.5821
 866       6.173e+00       1.074e+01       5.472e-01           0.132          -0.072           0.989       7.520e-02         -0.4704
 867       6.331e+00       1.074e+01       5.218e-01           0.190          -0.088           0.978       6.425e-02         -0.3375
 868       6.459e+00       1.074e+01       4.939e-01           0.243          -0.102           0.965       4.942e-02         -0.1799
 869       6.548e+00       1.074e+01       4.701e-01           0.281          -0.111           0.953       3.121e-02         -0.0571
 870       6.594e+00       1.074e+01       4.538e-01           0.465          -0.152           0.872       1.157e-02          0.1847
Strip 34
 871       6.690e+00       1.114e+01       4.669e-01          -0.063           0.062          -0.996       7.950e-03          0.1009
 872       6.647e+00       1.114e+01       4.740e-01          -0.196           0.093          -0.976       2.383e-02          0.3085
 873       6.562e+00       1.114e+01       4.826e-01          -0.039           0.054          -0.998       3.741e-02          0.3923
 874       6.442e+00       1.114e+01       4.761e-01           0.123           0.011          -0.992       4.964e-02          0.3489
 875       6.293e+00       1.114e+01       4.504e-01           0.209          -0.015          -0.978       5.967e-02          0.2266
 876       6.123e+00       1.114e+01       4.163e-01           0.185          -0.007          -0.983       6.510e-02          0.0677
 877       5.943e+00       1.114e+01       3.915e-01           0.089           0.026          -0.996       6.611e-02         -0.0072
 878       5.763e+00       1.114e+01       3.824e-01           0.010           0.055          -0.998       6.395e-02          0.0414
 879       5.593e+00       1.114e+01       3.851e-01          -0.045           0.077          -0.996       5.841e-02          0.1482
 880       5.444e+00       1.114e+01       3.956e-01          -0.099           0.099          -0.990       4.963e-02          0.2939
 881       5.323e+00       1.114e+01       4.118e-01          -0.177           0.132          -0.975       3.819e-02          0.4976
 882       5.239e+00       1.114e+01       4.345e-01          -0.374           0.217          -0.902       2.568e-02          0.7715
 883       5.196e+00       1.114e+01       4.671e-01          -0.804           0.394          -0.445       1.728e-02          0.1100
 884       5.196e+00       1.114e+01       5.055e-01          -0.805           0.354           0.476       1.712e-02         -2.7843
 885       5.239e+00       1.114e+01       5.381e-01          -0.377           0.139           0.916       2.562e-02         -3.2993
 886       5.323e+00       1.114e+01       5.610e-01          -0.180           0.048           0.983       3.810e-02         -1.8755
 887       5.444e+00       1.114e+01       5.772e-01          -0.097           0.011           0.995       4.950e-02         -1.2487
 888       5.593e+00       1.114e+01       5.874e-01          -0.044          -0.011           0.999       5.828e-02         -0.9443
 889       5.763e+00       1.114e+01       5.913e-01          -0.003          -0.027           1.000       6.382e-02         -0.7612
 890       5.943e+00       1.114e+01       5.882e-01           0.036          -0.041           0.999       6.578e-02         -0.6397
 891       6.123e+00       1.114e+01       5.779e-01           0.079          -0.056           0.995       6.404e-02         -0.5449
 892       6.293e+00       1.114e+01       5.602e-01           0.132          -0.072           0.989       5.877e-02         -0.4431
 893       6.442e+00       1.114e+01       5.362e-01           0.190          -0.088           0.978       5.021e-02         -0.3214
 894       6.562e+00       1.114e+01       5.099e-01           0.243          -0.102           0.965       3.862e-02         -0.1737
 895       6.647e+00       1.114e+01       4.873e-01           0.281          -0.111           0.953       2.439e-02         -0.0586
 896       6.690e+00       1.114e+01       4.720e-01           0.465          -0.152           0.872       9.043e-03          0.1817
Strip 35
 897       6.768e+00       1.146e+01       4.818e-01          -0.063           0.062          -0.996       5.943e-03          0.0711
 898       6.726e+00       1.146e+01       4.886e-01          -0.196           0.093          -0.976       1.782e-02          0.2705
 899       6.646e+00       1.146e+01       4.967e-01          -0.039           0.054          -0.998       2.796e-02          0.3489
 900       6.531e+00       1.146e+01       4.906e-01           0.122           0.011          -0.992       3.711e-02          0.3040
 901       6.389e+00       1.146e+01       4.661e-01           0.209          -0.015          -0.978       4.461e-02          0.1817
 902       6.228e+00       1.146e+01       4.337e-01           0.185          -0.007          -0.983       4.868e-02          0.0216
 903       6.056e+00       1.146e+01       4.100e-01           0.089           0.026          -0.996       4.942e-02         -0.0566
 904       5.884e+00       1.147e+01       4.014e-01           0.010           0.055          -0.998       4.781e-02         -0.0126
 905       5.723e+00       1.146e+01       4.040e-01          -0.045           0.077          -0.996       4.366e-02          0.0904
 906       5.581e+00       1.146e+01       4.139e-01          -0.099           0.099          -0.990       3.709e-02          0.2351
 907       5.466e+00       1.146e+01       4.294e-01          -0.178           0.132          -0.975       2.854e-02          0.4416
 908       5.386e+00       1.146e+01       4.510e-01          -0.374           0.217          -0.902       1.919e-02          0.7397
 909       5.344e+00       1.146e+01       4.820e-01          -0.805           0.394          -0.444       1.291e-02          0.2087
 910       5.344e+00       1.146e+01       5.186e-01          -0.805           0.354           0.477       1.280e-02         -2.5203
 911       5.386e+00       1.146e+01       5.496e-01          -0.377           0.139           0.916       1.916e-02         -3.0742
 912       5.466e+00       1.146e+01       5.715e-01          -0.180           0.048           0.983       2.849e-02         -1.7443
 913       5.581e+00       1.146e+01       5.869e-01          -0.097           0.011           0.995       3.700e-02         -1.1486
 914       5.723e+00       1.146e+01       5.966e-01          -0.044          -0.011           0.999       4.357e-02         -0.8571
 915       5.884e+00       1.146e+01       6.003e-01          -0.003          -0.027           1.000       4.771e-02         -0.6846
 916       6.056e+00       1.146e+01       5.974e-01           0.036          -0.041           0.999       4.917e-02         -0.5758
 917       6.228e+00       1.146e+01       5.876e-01           0.079          -0.056           0.995       4.787e-02         -0.4962
 918       6.389e+00       1.146e+01       5.706e-01           0.132          -0.072           0.989       4.393e-02         -0.4117
 919       6.531e+00       1.146e+01       5.478e-01           0.190          -0.088           0.978       3.753e-02         -0.3087
 920       6.646e+00       1.146e+01       5.228e-01           0.243          -0.102           0.965       2.886e-02         -0.1777
 921       6.726e+00       1.146e+01       5.013e-01           0.281          -0.111           0.953       1.823e-02         -0.0754
 922       6.768e+00       1.146e+01       4.867e-01           0.465          -0.152           0.872       6.758e-03          0.1635
Strip 36
 923       6.826e+00       1.170e+01       4.931e-01          -0.063           0.062          -0.996       4.112e-03         -0.0186
 924       6.787e+00       1.170e+01       4.997e-01          -0.196           0.093          -0.976       1.233e-02          0.1643
 925       6.709e+00       1.170e+01       5.075e-01          -0.039           0.054          -0.998       1.935e-02          0.2366
 926       6.599e+00       1.170e+01       5.016e-01           0.122           0.011          -0.992       2.568e-02          0.2006
 927       6.462e+00       1.171e+01       4.780e-01           0.209          -0.015          -0.978       3.088e-02          0.0947
 928       6.307e+00       1.171e+01       4.468e-01           0.185          -0.007          -0.983       3.369e-02         -0.0494
 929       6.142e+00       1.171e+01       4.240e-01           0.089           0.026          -0.996       3.420e-02         -0.1203
 930       5.977e+00       1.171e+01       4.157e-01           0.010           0.055          -0.998       3.308e-02         -0.0816
 931       5.821e+00       1.171e+01       4.182e-01          -0.045           0.077          -0.996       3.021e-02          0.0069
 932       5.684e+00       1.171e+01       4.278e-01          -0.099           0.099          -0.990       2.567e-02          0.1373
 933       5.574e+00       1.171e+01       4.427e-01          -0.178           0.132          -0.975       1.975e-02          0.3394
 934       5.497e+00       1.171e+01       4.635e-01          -0.374           0.217          -0.902       1.327e-02          0.6668
 935       5.457e+00       1.170e+01       4.933e-01          -0.805           0.394          -0.444       8.930e-03          0.3191
 936       5.457e+00       1.170e+01       5.285e-01          -0.804           0.354           0.478       8.863e-03         -2.1661
 937       5.497e+00       1.170e+01       5.584e-01          -0.377           0.139           0.916       1.327e-02         -2.7594
 938       5.574e+00       1.170e+01       5.794e-01          -0.180           0.048           0.983       1.972e-02         -1.5523
 939       5.684e+00       1.170e+01       5.942e-01          -0.097           0.011           0.995       2.561e-02         -1.0011
 940       5.821e+00       1.170e+01       6.036e-01          -0.044          -0.011           0.999       3.015e-02         -0.7357
 941       5.977e+00       1.170e+01       6.071e-01          -0.003          -0.027           1.000       3.302e-02         -0.5898
 942       6.142e+00       1.170e+01       6.043e-01           0.036          -0.041           0.999       3.402e-02         -0.5085
 943       6.307e+00       1.170e+01       5.949e-01           0.079          -0.056           0.995       3.312e-02         -0.4575
 944       6.462e+00       1.170e+01       5.786e-01           0.132          -0.072           0.989       3.040e-02         -0.4039
 945       6.599e+00       1.170e+01       5.566e-01           0.190          -0.088           0.978       2.597e-02         -0.3343
 946       6.709e+00       1.170e+01       5.325e-01           0.243          -0.102           0.965       1.997e-02         -0.2358
 947       6.787e+00       1.170e+01       5.119e-01           0.281          -0.111           0.953       1.261e-02         -0.1588
 948       6.826e+00       1.170e+01       4.978e-01           0.465          -0.152           0.872       4.675e-03          0.0788
Strip 37
 949       6.866e+00       1.187e+01       5.007e-01          -0.063           0.062          -0.996       2.413e-03         -0.4471
 950       6.827e+00       1.187e+01       5.071e-01          -0.196           0.093          -0.976       7.233e-03         -0.3127
 951       6.752e+00       1.187e+01       5.147e-01          -0.039           0.054          -0.998       1.136e-02         -0.1994
 952       6.644e+00       1.187e+01       5.090e-01           0.122           0.011          -0.992       1.507e-02         -0.1060
 953       6.511e+00       1.187e+01       4.860e-01           0.209          -0.015          -0.978       1.812e-02         -0.0843
 954       6.360e+00       1.187e+01       4.556e-01           0.185          -0.007          -0.983       1.977e-02         -0.1508
 955       6.199e+00       1.187e+01       4.334e-01           0.089           0.026          -0.996       2.007e-02         -0.1866
 956       6.038e+00       1.187e+01       4.253e-01           0.010           0.055          -0.998       1.941e-02         -0.1478
 957       5.887e+00       1.187e+01       4.278e-01          -0.045           0.077          -0.996       1.773e-02         -0.0836
 958       5.754e+00       1.187e+01       4.371e-01          -0.099           0.099          -0.990       1.506e-02          0.0052
 959       5.646e+00       1.187e+01       4.516e-01          -0.178           0.132          -0.975       1.159e-02          0.1608
 960       5.571e+00       1.187e+01       4.718e-01          -0.374           0.217          -0.902       7.787e-03          0.4811
 961       5.532e+00       1.187e+01       5.009e-01          -0.805           0.394          -0.443       5.239e-03          0.3518
 962       5.532e+00       1.187e+01       5.352e-01          -0.804           0.353           0.478       5.203e-03         -1.7347
 963       5.571e+00       1.186e+01       5.642e-01          -0.377           0.139           0.916       7.787e-03         -2.3264
 964       5.646e+00       1.186e+01       5.847e-01          -0.180           0.048           0.983       1.157e-02         -1.2769
 965       5.754e+00       1.186e+01       5.991e-01          -0.097           0.011           0.995       1.503e-02         -0.8097
 966       5.887e+00       1.186e+01       6.082e-01          -0.044          -0.011           0.999       1.769e-02         -0.6084
 967       6.038e+00       1.186e+01       6.116e-01          -0.003          -0.027           1.000       1.938e-02         -0.5109
 968       6.199e+00       1.186e+01       6.089e-01           0.036          -0.041           0.999       1.997e-02         -0.4669
 969       6.360e+00       1.186e+01       5.998e-01           0.079          -0.056           0.995       1.944e-02         -0.4623
 970       6.511e+00       1.186e+01       5.839e-01           0.132          -0.072           0.989       1.784e-02         -0.4935
 971       6.644e+00       1.186e+01       5.625e-01           0.190          -0.088           0.978       1.524e-02         -0.5601
 972       6.752e+00       1.187e+01       5.391e-01           0.243          -0.102           0.965       1.172e-02         -0.6172
 973       6.827e+00       1.187e+01       5.189e-01           0.281          -0.111           0.953       7.400e-03         -0.6478
 974       6.866e+00       1.187e+01       5.053e-01           0.465          -0.152           0.872       2.743e-03         -0.4315
Strip 38
 975       6.885e+00       1.195e+01       5.045e-01          -0.063           0.062          -0.996       7.953e-04         -0.9731
 976       6.847e+00       1.195e+01       5.108e-01          -0.196           0.093          -0.976       2.384e-03         -0.9355
 977       6.773e+00       1.195e+01       5.183e-01          -0.039           0.054          -0.998       3.742e-03         -0.8019
 978       6.667e+00       1.195e+01       5.126e-01           0.122           0.011          -0.992       4.967e-03         -0.5407
 979       6.536e+00       1.195e+01       4.900e-01           0.209          -0.015          -0.978       5.972e-03         -0.3254
 980       6.386e+00       1.195e+01       4.600e-01           0.185          -0.007          -0.983       6.516e-03         -0.2517
 981       6.228e+00       1.195e+01       4.382e-01           0.089           0.026          -0.996       6.616e-03         -0.2215
 982       6.069e+00       1.195e+01       4.302e-01           0.010           0.055          -0.998       6.398e-03         -0.1755
 983       5.920e+00       1.195e+01       4.326e-01          -0.045           0.077          -0.996       5.843e-03         -0.1274
 984       5.789e+00       1.195e+01       4.418e-01          -0.099           0.099          -0.990       4.963e-03         -0.0673
 985       5.683e+00       1.195e+01       4.560e-01          -0.178           0.132          -0.975       3.818e-03          0.0458
 986       5.608e+00       1.195e+01       4.760e-01          -0.374           0.217          -0.902       2.566e-03          0.3141
 987       5.570e+00       1.195e+01       5.047e-01          -0.805           0.394          -0.443       1.726e-03          0.3647
 988       5.570e+00       1.195e+01       5.385e-01          -0.804           0.353           0.478       1.715e-03         -1.2348
 989       5.608e+00       1.195e+01       5.671e-01          -0.376           0.139           0.916       2.567e-03         -1.8183
 990       5.683e+00       1.195e+01       5.873e-01          -0.180           0.048           0.983       3.814e-03         -0.9958
 991       5.789e+00       1.194e+01       6.016e-01          -0.097           0.011           0.995       4.953e-03         -0.6552
 992       5.920e+00       1.194e+01       6.106e-01          -0.044          -0.011           0.999       5.832e-03         -0.5234
 993       6.069e+00       1.194e+01       6.139e-01          -0.003          -0.027           1.000       6.386e-03         -0.4592
 994       6.228e+00       1.194e+01       6.113e-01           0.036          -0.041           0.999       6.580e-03         -0.4293
 995       6.386e+00       1.194e+01       6.022e-01           0.079          -0.056           0.995       6.406e-03         -0.4359
 996       6.536e+00       1.195e+01       5.866e-01           0.132          -0.072           0.989       5.878e-03         -0.5108
 997       6.667e+00       1.195e+01       5.654e-01           0.190          -0.088           0.978       5.021e-03         -0.7080
 998       6.773e+00       1.195e+01       5.423e-01           0.243          -0.102           0.965       3.862e-03         -0.9915
 999       6.847e+00       1.195e+01       5.225e-01           0.281          -0.111           0.953       2.438e-03         -1.1943
1000       6.885e+00       1.195e+01       5.090e-01           0.465          -0.152           0.872       9.040e-04         -1.0459










