xflr5 v6.61

Plane Name
T1-10.0 m/s-Panel-0.0kg-x0.0m-Inviscid
QInf  =   10.000000 m/s
Alpha =    9.000000
Beta  =    0.000°
Phi   =    0.000°
Ctrl  =    0.000
CL    =    1.143568
Cy    =   -0.000000
Cd    =    0.042731     ICd   =    0.042731     PCd   =    0.000000
Cl   = -2.24569e-15
Cm   =    -1.41802
ICn   =    0.000000     PCn   =    0.000000 
XCP   =    3.798322     YCP   =    0.000000     ZCP   =    0.357583  
XNP   =    0.000000
Bending = 13938.306519

Main Wing
  y-span        Chord      Ai         Cl        PCd          ICd        CmGeom    CmAirf@chord/4    XTrtop    XTrBot      XCP       BM
  -13.4270     1.3351    -8.963    0.391309    0.000000    0.061722   -2.216087   -0.007958     0.0000    0.0000    0.2641    0.0000
  -13.3353     1.3556    -6.802    0.643608    0.000000    0.076764   -3.311464   -0.044975     0.0000    0.0000    0.3129    0.1391
  -13.1525     1.3964    -5.328    0.861135    0.000000    0.080288   -4.121427   -0.053515     0.0000    0.0000    0.3069    1.8023
  -12.8798     1.4572    -4.198    1.022888    0.000000    0.075044   -4.632504   -0.069662     0.0000    0.0000    0.3129    9.0093
  -12.5192     1.5376    -3.355    1.133220    0.000000    0.066387   -4.784754   -0.083651     0.0000    0.0000    0.3185   29.3164
  -12.0730     1.6371    -2.734    1.201810    0.000000    0.057346   -4.651255   -0.093328     0.0000    0.0000    0.3222   74.2903
  -11.5444     1.7550    -2.304    1.239631    0.000000    0.049819   -4.333220   -0.099265     0.0000    0.0000    0.3246   159.6665
  -10.9369     1.8905    -2.031    1.256090    0.000000    0.044476   -3.916689   -0.102692     0.0000    0.0000    0.3262   305.3035
  -10.2547     2.0427    -1.878    1.257989    0.000000    0.041171   -3.461967   -0.104594     0.0000    0.0000    0.3276   534.9786
   -9.5025     2.2105    -1.812    1.249798    0.000000    0.039456   -3.006878   -0.105589     0.0000    0.0000    0.3289   875.9998
   -8.6853     2.3928    -1.809    1.234307    0.000000    0.038879   -2.573258   -0.106042     0.0000    0.0000    0.3304   1358.5862
   -7.8088     2.5883    -1.849    1.213174    0.000000    0.039060   -2.172545   -0.106172     0.0000    0.0000    0.3320   2014.9751
   -6.8790     2.7957    -1.921    1.187293    0.000000    0.039694   -1.809812   -0.106100     0.0000    0.0000    0.3338   2878.2347
   -5.9021     3.0135    -2.013    1.157030    0.000000    0.040526   -1.486229   -0.105937     0.0000    0.0000    0.3361   3980.7884
   -4.8850     3.2404    -2.116    1.122340    0.000000    0.041305   -1.200928   -0.105794     0.0000    0.0000    0.3388   5352.6759
   -3.8345     3.4747    -2.218    1.082807    0.000000    0.041723   -0.952025   -0.105897     0.0000    0.0000    0.3424   7019.6037
   -2.7578     3.7149    -2.297    1.037628    0.000000    0.041319   -0.737587   -0.106788     0.0000    0.0000    0.3477   9000.8517
   -1.6622     3.9592    -2.304    0.985318    0.000000    0.039157   -0.556619   -0.109864     0.0000    0.0000    0.3564   11307.1159
   -0.5553     4.2061    -2.077    0.919656    0.000000    0.031837   -0.411248   -0.120139     0.0000    0.0000    0.3756   13938.3065
    0.5553     4.2061    -2.077    0.919656    0.000000    0.031837   -0.411248   -0.120139     0.0000    0.0000    0.3756   13938.3065
    1.6622     3.9592    -2.304    0.985318    0.000000    0.039157   -0.556619   -0.109864     0.0000    0.0000    0.3564   11307.1159
    2.7578     3.7149    -2.297    1.037628    0.000000    0.041319   -0.737587   -0.106788     0.0000    0.0000    0.3477   9000.8517
    3.8345     3.4747    -2.218    1.082807    0.000000    0.041723   -0.952025   -0.105897     0.0000    0.0000    0.3424   7019.6037
    4.8850     3.2404    -2.116    1.122340    0.000000    0.041305   -1.200928   -0.105794     0.0000    0.0000    0.3388   5352.6759
    5.9021     3.0135    -2.013    1.157030    0.000000    0.040526   -1.486229   -0.105937     0.0000    0.0000    0.3361   3980.7884
    6.8790     2.7957    -1.921    1.187293    0.000000    0.039694   -1.809812   -0.106100     0.0000    0.0000    0.3338   2878.2347
    7.8088     2.5883    -1.849    1.213174    0.000000    0.039060   -2.172545   -0.106172     0.0000    0.0000    0.3320   2014.9751
    8.6853     2.3928    -1.809    1.234307    0.000000    0.038879   -2.573258   -0.106042     0.0000    0.0000    0.3304   1358.5862
    9.5025     2.2105    -1.812    1.249798    0.000000    0.039456   -3.006878   -0.105589     0.0000    0.0000    0.3289   875.9998
   10.2547     2.0427    -1.878    1.257989    0.000000    0.041171   -3.461967   -0.104594     0.0000    0.0000    0.3276   534.9786
   10.9369     1.8905    -2.031    1.256090    0.000000    0.044476   -3.916689   -0.102692     0.0000    0.0000    0.3262   305.3035
   11.5444     1.7550    -2.304    1.239631    0.000000    0.049819   -4.333220   -0.099265     0.0000    0.0000    0.3246   159.6665
   12.0730     1.6371    -2.734    1.201810    0.000000    0.057346   -4.651255   -0.093328     0.0000    0.0000    0.3222   74.2903
   12.5192     1.5376    -3.355    1.133220    0.000000    0.066387   -4.784754   -0.083651     0.0000    0.0000    0.3185   29.3164
   12.8798     1.4572    -4.198    1.022888    0.000000    0.075044   -4.632504   -0.069662     0.0000    0.0000    0.3129    9.0093
   13.1525     1.3964    -5.328    0.861135    0.000000    0.080288   -4.121427   -0.053515     0.0000    0.0000    0.3069    1.8023
   13.3353     1.3556    -6.802    0.643608    0.000000    0.076764   -3.311464   -0.044975     0.0000    0.0000    0.3129    0.1391
   13.4270     1.3351    -8.963    0.391309    0.000000    0.061722   -2.216087   -0.007958     0.0000    0.0000    0.2641    0.0000


Main Wing Cp Coefficients
 Panel     CtrlPt.x        CtrlPt.y        CtrlPt.z       Nx      Ny       Nz        Area       Cp
Main WingCp Coefficients
Strip 1
  13       7.565e+00      -1.341e+01       5.685e-01          -0.063          -0.062          -0.996       8.932e-04         -1.0080
  14       7.527e+00      -1.341e+01       5.748e-01          -0.196          -0.093          -0.976       2.677e-03         -0.9780
  15       7.452e+00      -1.341e+01       5.823e-01          -0.039          -0.054          -0.998       4.203e-03         -0.8655
  16       7.346e+00      -1.341e+01       5.767e-01           0.122          -0.011          -0.992       5.579e-03         -0.6201
  17       7.215e+00      -1.342e+01       5.540e-01           0.209           0.015          -0.978       6.708e-03         -0.3956
  18       7.065e+00      -1.342e+01       5.240e-01           0.185           0.007          -0.983       7.319e-03         -0.2976
  19       6.907e+00      -1.342e+01       5.021e-01           0.089          -0.026          -0.996       7.430e-03         -0.2479
  20       6.748e+00      -1.342e+01       4.941e-01           0.010          -0.055          -0.998       7.186e-03         -0.1898
  21       6.599e+00      -1.342e+01       4.965e-01          -0.045          -0.077          -0.996       6.563e-03         -0.1312
  22       6.467e+00      -1.342e+01       5.057e-01          -0.099          -0.099          -0.990       5.574e-03         -0.0570
  23       6.362e+00      -1.342e+01       5.200e-01          -0.178          -0.132          -0.975       4.288e-03          0.0794
  24       6.287e+00      -1.342e+01       5.400e-01          -0.374          -0.217          -0.902       2.882e-03          0.3659
  25       6.249e+00      -1.341e+01       5.687e-01          -0.805          -0.394          -0.443       1.939e-03          0.2832
  26       6.249e+00      -1.341e+01       6.025e-01          -0.804          -0.353           0.478       1.926e-03         -1.5600
  27       6.287e+00      -1.341e+01       6.312e-01          -0.376          -0.139           0.916       2.883e-03         -2.0759
  28       6.362e+00      -1.341e+01       6.513e-01          -0.180          -0.048           0.983       4.284e-03         -1.1124
  29       6.467e+00      -1.341e+01       6.656e-01          -0.097          -0.011           0.995       5.564e-03         -0.7259
  30       6.599e+00      -1.341e+01       6.746e-01          -0.044           0.011           0.999       6.550e-03         -0.5783
  31       6.748e+00      -1.341e+01       6.780e-01          -0.003           0.027           1.000       7.172e-03         -0.5074
  32       6.907e+00      -1.341e+01       6.753e-01           0.036           0.041           0.999       7.391e-03         -0.4758
  33       7.065e+00      -1.341e+01       6.662e-01           0.079           0.056           0.995       7.195e-03         -0.4861
  34       7.215e+00      -1.341e+01       6.506e-01           0.132           0.072           0.989       6.602e-03         -0.5693
  35       7.346e+00      -1.341e+01       6.295e-01           0.190           0.089           0.978       5.640e-03         -0.7704
  36       7.452e+00      -1.341e+01       6.064e-01           0.243           0.103           0.964       4.337e-03         -1.0397
  37       7.527e+00      -1.341e+01       5.865e-01           0.281           0.112           0.953       2.739e-03         -1.2173
  38       7.565e+00      -1.341e+01       5.730e-01           0.465           0.153           0.872       1.015e-03         -1.0498
Strip 2
  39       7.542e+00      -1.332e+01       5.642e-01          -0.063          -0.062          -0.996       2.715e-03         -0.4661
  40       7.504e+00      -1.332e+01       5.706e-01          -0.196          -0.093          -0.976       8.137e-03         -0.3306
  41       7.428e+00      -1.332e+01       5.782e-01          -0.039          -0.054          -0.998       1.277e-02         -0.2251
  42       7.321e+00      -1.332e+01       5.725e-01           0.122          -0.011          -0.992       1.695e-02         -0.1376
  43       7.187e+00      -1.332e+01       5.495e-01           0.209           0.015          -0.978       2.038e-02         -0.1110
  44       7.036e+00      -1.333e+01       5.191e-01           0.185           0.007          -0.983       2.224e-02         -0.1653
  45       6.874e+00      -1.333e+01       4.968e-01           0.089          -0.026          -0.996       2.258e-02         -0.1904
  46       6.713e+00      -1.333e+01       4.887e-01           0.010          -0.055          -0.998       2.184e-02         -0.1423
  47       6.562e+00      -1.333e+01       4.912e-01          -0.045          -0.077          -0.996       1.994e-02         -0.0663
  48       6.428e+00      -1.333e+01       5.005e-01          -0.099          -0.099          -0.990       1.694e-02          0.0403
  49       6.321e+00      -1.333e+01       5.150e-01          -0.178          -0.132          -0.975       1.303e-02          0.2214
  50       6.245e+00      -1.332e+01       5.353e-01          -0.374          -0.217          -0.902       8.759e-03          0.5406
  51       6.207e+00      -1.332e+01       5.644e-01          -0.805          -0.394          -0.443       5.893e-03          0.1875
  52       6.207e+00      -1.332e+01       5.988e-01          -0.804          -0.353           0.478       5.852e-03         -2.2023
  53       6.245e+00      -1.332e+01       6.279e-01          -0.377          -0.139           0.916       8.759e-03         -2.6828
  54       6.321e+00      -1.332e+01       6.484e-01          -0.180          -0.048           0.983       1.302e-02         -1.4406
  55       6.428e+00      -1.332e+01       6.628e-01          -0.097          -0.011           0.995       1.691e-02         -0.9035
  56       6.562e+00      -1.332e+01       6.720e-01          -0.044           0.011           0.999       1.990e-02         -0.6726
  57       6.713e+00      -1.332e+01       6.754e-01          -0.003           0.027           1.000       2.180e-02         -0.5614
  58       6.874e+00      -1.332e+01       6.727e-01           0.036           0.041           0.999       2.246e-02         -0.5119
  59       7.036e+00      -1.332e+01       6.635e-01           0.079           0.056           0.995       2.187e-02         -0.5066
  60       7.187e+00      -1.332e+01       6.476e-01           0.132           0.072           0.989       2.007e-02         -0.5371
  61       7.321e+00      -1.332e+01       6.261e-01           0.190           0.089           0.978       1.714e-02         -0.5979
  62       7.428e+00      -1.332e+01       6.027e-01           0.243           0.103           0.964       1.318e-02         -0.6406
  63       7.504e+00      -1.332e+01       5.825e-01           0.281           0.112           0.953       8.324e-03         -0.6563
  64       7.542e+00      -1.332e+01       5.688e-01           0.465           0.153           0.872       3.086e-03         -0.4275
Strip 3
  65       7.498e+00      -1.314e+01       5.557e-01          -0.063          -0.062          -0.996       4.639e-03         -0.0206
  66       7.458e+00      -1.314e+01       5.623e-01          -0.196          -0.093          -0.976       1.391e-02          0.1668
  67       7.380e+00      -1.314e+01       5.702e-01          -0.039          -0.054          -0.998       2.183e-02          0.2380
  68       7.270e+00      -1.314e+01       5.643e-01           0.122          -0.011          -0.992       2.897e-02          0.2014
  69       7.132e+00      -1.314e+01       5.406e-01           0.209           0.015          -0.978       3.483e-02          0.0979
  70       6.976e+00      -1.314e+01       5.092e-01           0.185           0.007          -0.983       3.800e-02         -0.0388
  71       6.810e+00      -1.314e+01       4.863e-01           0.089          -0.026          -0.996       3.859e-02         -0.0996
  72       6.644e+00      -1.314e+01       4.780e-01           0.010          -0.055          -0.998       3.732e-02         -0.0504
  73       6.488e+00      -1.314e+01       4.805e-01          -0.045          -0.077          -0.996       3.409e-02          0.0520
  74       6.350e+00      -1.314e+01       4.901e-01          -0.099          -0.099          -0.990       2.895e-02          0.1999
  75       6.240e+00      -1.314e+01       5.050e-01          -0.178          -0.132          -0.975       2.228e-02          0.4184
  76       6.162e+00      -1.314e+01       5.259e-01          -0.374          -0.217          -0.902       1.497e-02          0.7155
  77       6.122e+00      -1.314e+01       5.559e-01          -0.805          -0.394          -0.444       1.007e-02          0.0777
  78       6.122e+00      -1.314e+01       5.913e-01          -0.804          -0.353           0.478       9.998e-03         -2.7500
  79       6.162e+00      -1.314e+01       6.213e-01          -0.377          -0.139           0.916       1.496e-02         -3.1936
  80       6.240e+00      -1.314e+01       6.424e-01          -0.180          -0.048           0.983       2.225e-02         -1.7551
  81       6.350e+00      -1.314e+01       6.573e-01          -0.097          -0.011           0.995       2.889e-02         -1.1190
  82       6.488e+00      -1.314e+01       6.667e-01          -0.044           0.011           0.999       3.402e-02         -0.8144
  83       6.644e+00      -1.314e+01       6.702e-01          -0.003           0.027           1.000       3.725e-02         -0.6459
  84       6.810e+00      -1.314e+01       6.675e-01           0.036           0.041           0.999       3.839e-02         -0.5501
  85       6.976e+00      -1.314e+01       6.580e-01           0.079           0.056           0.995       3.737e-02         -0.4885
  86       7.132e+00      -1.314e+01       6.416e-01           0.132           0.072           0.989       3.429e-02         -0.4259
  87       7.270e+00      -1.314e+01       6.195e-01           0.190           0.089           0.978       2.929e-02         -0.3477
  88       7.380e+00      -1.314e+01       5.953e-01           0.243           0.103           0.964       2.253e-02         -0.2399
  89       7.458e+00      -1.314e+01       5.746e-01           0.281           0.112           0.953       1.423e-02         -0.1556
  90       7.498e+00      -1.314e+01       5.604e-01           0.465           0.153           0.872       5.275e-03          0.0901
Strip 4
  91       7.432e+00      -1.287e+01       5.430e-01          -0.063          -0.062          -0.996       6.732e-03          0.0716
  92       7.390e+00      -1.287e+01       5.499e-01          -0.196          -0.093          -0.976       2.018e-02          0.2760
  93       7.309e+00      -1.287e+01       5.581e-01          -0.039          -0.054          -0.998       3.168e-02          0.3541
  94       7.193e+00      -1.287e+01       5.520e-01           0.122          -0.011          -0.992       4.204e-02          0.3107
  95       7.050e+00      -1.287e+01       5.272e-01           0.209           0.015          -0.978       5.053e-02          0.1933
  96       6.887e+00      -1.287e+01       4.945e-01           0.185           0.008          -0.983       5.514e-02          0.0435
  97       6.714e+00      -1.287e+01       4.706e-01           0.089          -0.026          -0.996       5.598e-02         -0.0219
  98       6.541e+00      -1.287e+01       4.619e-01           0.010          -0.055          -0.998       5.415e-02          0.0337
  99       6.378e+00      -1.287e+01       4.645e-01          -0.045          -0.077          -0.996       4.946e-02          0.1484
 100       6.234e+00      -1.287e+01       4.746e-01          -0.099          -0.099          -0.990       4.202e-02          0.3055
 101       6.118e+00      -1.287e+01       4.901e-01          -0.178          -0.132          -0.975       3.233e-02          0.5210
 102       6.037e+00      -1.287e+01       5.120e-01          -0.374          -0.217          -0.902       2.173e-02          0.7715
 103       5.996e+00      -1.287e+01       5.433e-01          -0.805          -0.394          -0.445       1.462e-02         -0.0886
 104       5.996e+00      -1.287e+01       5.802e-01          -0.805          -0.354           0.477       1.450e-02         -3.1849
 105       6.037e+00      -1.287e+01       6.115e-01          -0.377          -0.139           0.916       2.171e-02         -3.5618
 106       6.118e+00      -1.286e+01       6.335e-01          -0.180          -0.048           0.983       3.227e-02         -1.9719
 107       6.234e+00      -1.286e+01       6.491e-01          -0.097          -0.011           0.995       4.192e-02         -1.2816
 108       6.378e+00      -1.286e+01       6.589e-01          -0.044           0.011           0.999       4.935e-02         -0.9468
 109       6.541e+00      -1.286e+01       6.626e-01          -0.003           0.027           1.000       5.405e-02         -0.7488
 110       6.714e+00      -1.286e+01       6.597e-01           0.036           0.041           0.999       5.570e-02         -0.6225
 111       6.887e+00      -1.286e+01       6.498e-01           0.079           0.056           0.995       5.423e-02         -0.5294
 112       7.050e+00      -1.286e+01       6.327e-01           0.132           0.072           0.989       4.976e-02         -0.4338
 113       7.193e+00      -1.287e+01       6.096e-01           0.190           0.089           0.978       4.251e-02         -0.3208
 114       7.309e+00      -1.287e+01       5.844e-01           0.243           0.103           0.964       3.270e-02         -0.1807
 115       7.390e+00      -1.287e+01       5.627e-01           0.281           0.112           0.953       2.065e-02         -0.0724
 116       7.432e+00      -1.287e+01       5.480e-01           0.465           0.153           0.872       7.656e-03          0.1737
Strip 5
 117       7.344e+00      -1.251e+01       5.263e-01          -0.063          -0.062          -0.996       9.050e-03          0.1022
 118       7.300e+00      -1.251e+01       5.335e-01          -0.196          -0.093          -0.976       2.713e-02          0.3151
 119       7.214e+00      -1.251e+01       5.422e-01          -0.039          -0.054          -0.998       4.259e-02          0.3990
 120       7.092e+00      -1.251e+01       5.357e-01           0.123          -0.011          -0.992       5.650e-02          0.3578
 121       6.941e+00      -1.251e+01       5.096e-01           0.209           0.015          -0.978       6.792e-02          0.2417
 122       6.769e+00      -1.251e+01       4.751e-01           0.185           0.008          -0.983       7.411e-02          0.0947
 123       6.586e+00      -1.251e+01       4.498e-01           0.089          -0.026          -0.996       7.525e-02          0.0337
 124       6.404e+00      -1.251e+01       4.406e-01           0.010          -0.055          -0.998       7.279e-02          0.0931
 125       6.232e+00      -1.251e+01       4.434e-01          -0.045          -0.077          -0.996       6.649e-02          0.2096
 126       6.080e+00      -1.251e+01       4.540e-01          -0.099          -0.099          -0.990       5.649e-02          0.3650
 127       5.958e+00      -1.251e+01       4.704e-01          -0.177          -0.132          -0.975       4.347e-02          0.5743
 128       5.873e+00      -1.251e+01       4.935e-01          -0.374          -0.217          -0.902       2.923e-02          0.7899
 129       5.829e+00      -1.251e+01       5.265e-01          -0.804          -0.393          -0.446       1.967e-02         -0.2236
 130       5.829e+00      -1.251e+01       5.655e-01          -0.805          -0.354           0.476       1.948e-02         -3.4982
 131       5.873e+00      -1.251e+01       5.985e-01          -0.377          -0.139           0.916       2.916e-02         -3.8179
 132       5.958e+00      -1.250e+01       6.217e-01          -0.180          -0.048           0.983       4.337e-02         -2.1167
 133       6.080e+00      -1.250e+01       6.381e-01          -0.097          -0.011           0.995       5.634e-02         -1.3895
 134       6.232e+00      -1.250e+01       6.485e-01          -0.044           0.011           0.999       6.634e-02         -1.0390
 135       6.404e+00      -1.250e+01       6.524e-01          -0.003           0.027           1.000       7.266e-02         -0.8291
 136       6.586e+00      -1.250e+01       6.493e-01           0.036           0.041           0.999       7.488e-02         -0.6893
 137       6.769e+00      -1.250e+01       6.389e-01           0.079           0.056           0.995       7.290e-02         -0.5803
 138       6.941e+00      -1.250e+01       6.209e-01           0.132           0.072           0.989       6.691e-02         -0.4664
 139       7.092e+00      -1.251e+01       5.965e-01           0.190           0.089           0.978       5.716e-02         -0.3341
 140       7.214e+00      -1.251e+01       5.699e-01           0.243           0.103           0.965       4.396e-02         -0.1773
 141       7.300e+00      -1.251e+01       5.470e-01           0.281           0.112           0.953       2.776e-02         -0.0564
 142       7.344e+00      -1.251e+01       5.315e-01           0.465           0.153           0.872       1.029e-02          0.1911
Strip 6
 143       7.235e+00      -1.206e+01       5.055e-01          -0.063          -0.062          -0.996       1.164e-02          0.1157
 144       7.189e+00      -1.206e+01       5.133e-01          -0.196          -0.093          -0.976       3.491e-02          0.3333
 145       7.097e+00      -1.206e+01       5.225e-01          -0.039          -0.054          -0.998       5.478e-02          0.4209
 146       6.968e+00      -1.206e+01       5.156e-01           0.123          -0.011          -0.992       7.268e-02          0.3824
 147       6.806e+00      -1.206e+01       4.877e-01           0.209           0.015          -0.978       8.735e-02          0.2692
 148       6.623e+00      -1.206e+01       4.510e-01           0.185           0.008          -0.983       9.531e-02          0.1263
 149       6.429e+00      -1.206e+01       4.241e-01           0.089          -0.026          -0.996       9.679e-02          0.0690
 150       6.234e+00      -1.207e+01       4.143e-01           0.010          -0.055          -0.998       9.364e-02          0.1297
 151       6.051e+00      -1.207e+01       4.173e-01          -0.045          -0.077          -0.996       8.554e-02          0.2454
 152       5.890e+00      -1.206e+01       4.286e-01          -0.099          -0.099          -0.990       7.268e-02          0.3984
 153       5.760e+00      -1.206e+01       4.461e-01          -0.177          -0.132          -0.975       5.594e-02          0.6031
 154       5.669e+00      -1.206e+01       4.706e-01          -0.373          -0.217          -0.902       3.762e-02          0.7961
 155       5.622e+00      -1.206e+01       5.058e-01          -0.804          -0.393          -0.446       2.531e-02         -0.3118
 156       5.622e+00      -1.206e+01       5.473e-01          -0.806          -0.354           0.475       2.505e-02         -3.6973
 157       5.669e+00      -1.206e+01       5.824e-01          -0.377          -0.139           0.916       3.750e-02         -3.9793
 158       5.760e+00      -1.206e+01       6.072e-01          -0.180          -0.048           0.983       5.578e-02         -2.2058
 159       5.890e+00      -1.206e+01       6.247e-01          -0.097          -0.011           0.995       7.247e-02         -1.4550
 160       6.051e+00      -1.206e+01       6.357e-01          -0.044           0.011           0.999       8.534e-02         -1.0953
 161       6.234e+00      -1.206e+01       6.398e-01          -0.003           0.027           1.000       9.347e-02         -0.8798
 162       6.429e+00      -1.206e+01       6.366e-01           0.036           0.041           0.999       9.633e-02         -0.7340
 163       6.623e+00      -1.206e+01       6.255e-01           0.079           0.056           0.995       9.379e-02         -0.6173
 164       6.806e+00      -1.206e+01       6.063e-01           0.132           0.072           0.989       8.608e-02         -0.4934
 165       6.968e+00      -1.206e+01       5.803e-01           0.190           0.089           0.978       7.354e-02         -0.3499
 166       7.097e+00      -1.206e+01       5.520e-01           0.243           0.103           0.965       5.657e-02         -0.1834
 167       7.189e+00      -1.206e+01       5.276e-01           0.281           0.112           0.953       3.572e-02         -0.0547
 168       7.235e+00      -1.206e+01       5.111e-01           0.465           0.153           0.872       1.325e-02          0.1944
Strip 7
 169       7.107e+00      -1.153e+01       4.809e-01          -0.063          -0.062          -0.996       1.455e-02          0.1226
 170       7.057e+00      -1.153e+01       4.892e-01          -0.196          -0.093          -0.976       4.362e-02          0.3429
 171       6.959e+00      -1.153e+01       4.991e-01          -0.039          -0.054          -0.998       6.845e-02          0.4327
 172       6.820e+00      -1.153e+01       4.917e-01           0.123          -0.011          -0.992       9.080e-02          0.3960
 173       6.647e+00      -1.153e+01       4.619e-01           0.209           0.015          -0.978       1.091e-01          0.2850
 174       6.450e+00      -1.154e+01       4.225e-01           0.185           0.008          -0.983       1.191e-01          0.1445
 175       6.242e+00      -1.154e+01       3.937e-01           0.089          -0.026          -0.996       1.209e-01          0.0891
 176       6.034e+00      -1.154e+01       3.832e-01           0.010          -0.055          -0.998       1.170e-01          0.1501
 177       5.837e+00      -1.154e+01       3.863e-01          -0.045          -0.077          -0.996       1.069e-01          0.2648
 178       5.664e+00      -1.154e+01       3.984e-01          -0.099          -0.099          -0.990       9.082e-02          0.4159
 179       5.525e+00      -1.154e+01       4.172e-01          -0.177          -0.132          -0.975       6.991e-02          0.6178
 180       5.428e+00      -1.154e+01       4.435e-01          -0.373          -0.217          -0.902       4.703e-02          0.7987
 181       5.377e+00      -1.153e+01       4.812e-01          -0.803          -0.393          -0.448       3.165e-02         -0.3548
 182       5.377e+00      -1.153e+01       5.257e-01          -0.806          -0.354           0.474       3.128e-02         -3.7990
 183       5.428e+00      -1.153e+01       5.634e-01          -0.377          -0.140           0.915       4.683e-02         -4.0637
 184       5.525e+00      -1.153e+01       5.899e-01          -0.180          -0.048           0.983       6.968e-02         -2.2525
 185       5.664e+00      -1.153e+01       6.087e-01          -0.097          -0.011           0.995       9.053e-02         -1.4899
 186       5.837e+00      -1.153e+01       6.205e-01          -0.044           0.011           0.999       1.066e-01         -1.1258
 187       6.034e+00      -1.153e+01       6.250e-01          -0.003           0.027           1.000       1.168e-01         -0.9078
 188       6.242e+00      -1.153e+01       6.215e-01           0.036           0.041           0.999       1.204e-01         -0.7595
 189       6.450e+00      -1.153e+01       6.095e-01           0.079           0.056           0.995       1.172e-01         -0.6390
 190       6.647e+00      -1.153e+01       5.889e-01           0.132           0.072           0.989       1.076e-01         -0.5099
 191       6.820e+00      -1.153e+01       5.612e-01           0.190           0.089           0.978       9.190e-02         -0.3604
 192       6.959e+00      -1.153e+01       5.308e-01           0.243           0.103           0.965       7.069e-02         -0.1888
 193       7.057e+00      -1.153e+01       5.046e-01           0.281           0.112           0.953       4.464e-02         -0.0554
 194       7.107e+00      -1.153e+01       4.869e-01           0.464           0.153           0.872       1.656e-02          0.1947
Strip 8
 195       6.959e+00      -1.093e+01       4.527e-01          -0.063          -0.062          -0.996       1.779e-02          0.1263
 196       6.905e+00      -1.093e+01       4.616e-01          -0.196          -0.093          -0.976       5.335e-02          0.3482
 197       6.800e+00      -1.093e+01       4.723e-01          -0.039          -0.054          -0.998       8.371e-02          0.4393
 198       6.650e+00      -1.093e+01       4.643e-01           0.123          -0.011          -0.992       1.110e-01          0.4036
 199       6.464e+00      -1.093e+01       4.322e-01           0.209           0.015          -0.978       1.334e-01          0.2936
 200       6.252e+00      -1.093e+01       3.897e-01           0.185           0.008          -0.983       1.456e-01          0.1541
 201       6.027e+00      -1.093e+01       3.587e-01           0.089          -0.026          -0.996       1.478e-01          0.0993
 202       5.803e+00      -1.093e+01       3.473e-01           0.010          -0.055          -0.998       1.431e-01          0.1600
 203       5.591e+00      -1.093e+01       3.507e-01          -0.045          -0.077          -0.996       1.307e-01          0.2736
 204       5.405e+00      -1.093e+01       3.638e-01          -0.099          -0.099          -0.990       1.111e-01          0.4232
 205       5.255e+00      -1.093e+01       3.840e-01          -0.177          -0.132          -0.975       8.551e-02          0.6233
 206       5.150e+00      -1.093e+01       4.123e-01          -0.373          -0.217          -0.902       5.754e-02          0.8007
 207       5.096e+00      -1.093e+01       4.530e-01          -0.803          -0.393          -0.449       3.872e-02         -0.3607
 208       5.096e+00      -1.093e+01       5.009e-01          -0.807          -0.355           0.473       3.823e-02         -3.8231
 209       5.150e+00      -1.092e+01       5.415e-01          -0.378          -0.140           0.915       5.723e-02         -4.0881
 210       5.255e+00      -1.092e+01       5.701e-01          -0.180          -0.048           0.983       8.518e-02         -2.2676
 211       5.405e+00      -1.092e+01       5.903e-01          -0.097          -0.011           0.995       1.107e-01         -1.5029
 212       5.591e+00      -1.092e+01       6.031e-01          -0.044           0.011           0.999       1.304e-01         -1.1384
 213       5.803e+00      -1.092e+01       6.079e-01          -0.003           0.027           1.000       1.428e-01         -0.9204
 214       6.027e+00      -1.092e+01       6.041e-01           0.036           0.041           0.999       1.472e-01         -0.7715
 215       6.252e+00      -1.092e+01       5.912e-01           0.079           0.056           0.995       1.433e-01         -0.6497
 216       6.464e+00      -1.092e+01       5.691e-01           0.132           0.072           0.989       1.316e-01         -0.5182
 217       6.650e+00      -1.092e+01       5.391e-01           0.190           0.089           0.978       1.124e-01         -0.3658
 218       6.800e+00      -1.093e+01       5.064e-01           0.243           0.103           0.965       8.646e-02         -0.1916
 219       6.905e+00      -1.093e+01       4.782e-01           0.280           0.112           0.953       5.460e-02         -0.0560
 220       6.959e+00      -1.093e+01       4.591e-01           0.464           0.153           0.872       2.025e-02          0.1944
Strip 9
 221       6.793e+00      -1.025e+01       4.210e-01          -0.063          -0.062          -0.996       2.138e-02          0.1283
 222       6.735e+00      -1.025e+01       4.306e-01          -0.196          -0.093          -0.976       6.413e-02          0.3511
 223       6.621e+00      -1.025e+01       4.421e-01          -0.039          -0.054          -0.998       1.006e-01          0.4430
 224       6.459e+00      -1.025e+01       4.335e-01           0.123          -0.011          -0.992       1.334e-01          0.4078
 225       6.258e+00      -1.025e+01       3.988e-01           0.209           0.015          -0.978       1.603e-01          0.2979
 226       6.029e+00      -1.025e+01       3.529e-01           0.185           0.008          -0.983       1.749e-01          0.1583
 227       5.787e+00      -1.025e+01       3.194e-01           0.089          -0.026          -0.996       1.777e-01          0.1030
 228       5.544e+00      -1.025e+01       3.071e-01           0.010          -0.055          -0.998       1.719e-01          0.1629
 229       5.315e+00      -1.025e+01       3.108e-01          -0.045          -0.077          -0.996       1.571e-01          0.2755
 230       5.114e+00      -1.025e+01       3.249e-01          -0.099          -0.099          -0.990       1.335e-01          0.4236
 231       4.952e+00      -1.025e+01       3.468e-01          -0.177          -0.132          -0.975       1.028e-01          0.6226
 232       4.839e+00      -1.025e+01       3.774e-01          -0.373          -0.217          -0.902       6.918e-02          0.8029
 233       4.780e+00      -1.025e+01       4.213e-01          -0.802          -0.393          -0.449       4.656e-02         -0.3380
 234       4.780e+00      -1.024e+01       4.731e-01          -0.807          -0.355           0.472       4.591e-02         -3.7884
 235       4.839e+00      -1.024e+01       5.170e-01          -0.378          -0.140           0.915       6.874e-02         -4.0672
 236       4.952e+00      -1.024e+01       5.479e-01          -0.180          -0.048           0.983       1.023e-01         -2.2596
 237       5.114e+00      -1.024e+01       5.697e-01          -0.097          -0.011           0.995       1.330e-01         -1.5006
 238       5.315e+00      -1.024e+01       5.835e-01          -0.044           0.011           0.999       1.567e-01         -1.1390
 239       5.544e+00      -1.024e+01       5.886e-01          -0.003           0.027           1.000       1.716e-01         -0.9227
 240       5.787e+00      -1.024e+01       5.846e-01           0.036           0.041           0.999       1.769e-01         -0.7746
 241       6.029e+00      -1.024e+01       5.707e-01           0.079           0.056           0.995       1.723e-01         -0.6529
 242       6.258e+00      -1.024e+01       5.467e-01           0.132           0.072           0.989       1.581e-01         -0.5209
 243       6.459e+00      -1.024e+01       5.144e-01           0.190           0.089           0.978       1.351e-01         -0.3676
 244       6.621e+00      -1.024e+01       4.790e-01           0.243           0.103           0.965       1.039e-01         -0.1925
 245       6.735e+00      -1.024e+01       4.486e-01           0.280           0.112           0.953       6.563e-02         -0.0561
 246       6.793e+00      -1.025e+01       4.279e-01           0.464           0.153           0.872       2.435e-02          0.1941
Strip 10
 247       6.610e+00      -9.494e+00       3.860e-01          -0.063          -0.062          -0.996       2.531e-02          0.1293
 248       6.547e+00      -9.494e+00       3.965e-01          -0.196          -0.093          -0.976       7.594e-02          0.3527
 249       6.424e+00      -9.494e+00       4.089e-01          -0.039          -0.054          -0.998       1.191e-01          0.4450
 250       6.248e+00      -9.494e+00       3.995e-01           0.123          -0.011          -0.992       1.579e-01          0.4099
 251       6.031e+00      -9.494e+00       3.620e-01           0.209           0.015          -0.978       1.897e-01          0.2996
 252       5.783e+00      -9.495e+00       3.123e-01           0.185           0.008          -0.983       2.070e-01          0.1591
 253       5.521e+00      -9.496e+00       2.760e-01           0.089          -0.026          -0.996       2.103e-01          0.1026
 254       5.258e+00      -9.496e+00       2.628e-01           0.010          -0.055          -0.998       2.036e-01          0.1613
 255       5.011e+00      -9.496e+00       2.668e-01          -0.045          -0.077          -0.996       1.860e-01          0.2726
 256       4.793e+00      -9.496e+00       2.820e-01          -0.099          -0.099          -0.990       1.581e-01          0.4193
 257       4.618e+00      -9.495e+00       3.057e-01          -0.177          -0.132          -0.975       1.217e-01          0.6175
 258       4.495e+00      -9.495e+00       3.388e-01          -0.373          -0.217          -0.902       8.195e-02          0.8050
 259       4.432e+00      -9.494e+00       3.864e-01          -0.802          -0.393          -0.450       5.516e-02         -0.2945
 260       4.432e+00      -9.493e+00       4.424e-01          -0.807          -0.355           0.471       5.433e-02         -3.7094
 261       4.495e+00      -9.492e+00       4.899e-01          -0.378          -0.140           0.915       8.135e-02         -4.0127
 262       4.618e+00      -9.491e+00       5.233e-01          -0.180          -0.048           0.982       1.211e-01         -2.2349
 263       4.793e+00      -9.491e+00       5.469e-01          -0.097          -0.011           0.995       1.575e-01         -1.4872
 264       5.011e+00      -9.491e+00       5.619e-01          -0.044           0.011           0.999       1.855e-01         -1.1310
 265       5.258e+00      -9.491e+00       5.675e-01          -0.003           0.027           1.000       2.032e-01         -0.9179
 266       5.521e+00      -9.491e+00       5.630e-01           0.036           0.041           0.999       2.094e-01         -0.7719
 267       5.783e+00      -9.491e+00       5.480e-01           0.079           0.056           0.995       2.040e-01         -0.6514
 268       6.031e+00      -9.491e+00       5.221e-01           0.132           0.072           0.989       1.872e-01         -0.5199
 269       6.248e+00      -9.492e+00       4.871e-01           0.190           0.089           0.978       1.600e-01         -0.3670
 270       6.424e+00      -9.493e+00       4.488e-01           0.243           0.103           0.965       1.231e-01         -0.1920
 271       6.547e+00      -9.493e+00       4.159e-01           0.280           0.112           0.953       7.772e-02         -0.0557
 272       6.610e+00      -9.494e+00       3.935e-01           0.464           0.153           0.873       2.884e-02          0.1940
Strip 11
 273       6.411e+00      -8.678e+00       3.480e-01          -0.063          -0.062          -0.996       2.957e-02          0.1298
 274       6.343e+00      -8.677e+00       3.593e-01          -0.196          -0.093          -0.976       8.872e-02          0.3536
 275       6.210e+00      -8.677e+00       3.728e-01          -0.039          -0.054          -0.998       1.391e-01          0.4461
 276       6.020e+00      -8.677e+00       3.627e-01           0.123          -0.011          -0.992       1.845e-01          0.4107
 277       5.784e+00      -8.678e+00       3.220e-01           0.209           0.015          -0.978       2.216e-01          0.2997
 278       5.517e+00      -8.679e+00       2.682e-01           0.185           0.008          -0.983       2.418e-01          0.1576
 279       5.232e+00      -8.679e+00       2.289e-01           0.089          -0.026          -0.996       2.457e-01          0.0992
 280       4.948e+00      -8.680e+00       2.146e-01           0.010          -0.055          -0.998       2.378e-01          0.1564
 281       4.680e+00      -8.680e+00       2.189e-01          -0.045          -0.077          -0.996       2.173e-01          0.2663
 282       4.445e+00      -8.679e+00       2.354e-01          -0.099          -0.099          -0.990       1.847e-01          0.4115
 283       4.255e+00      -8.679e+00       2.610e-01          -0.177          -0.132          -0.975       1.422e-01          0.6089
 284       4.122e+00      -8.678e+00       2.969e-01          -0.372          -0.217          -0.902       9.577e-02          0.8067
 285       4.053e+00      -8.678e+00       3.484e-01          -0.801          -0.392          -0.451       6.446e-02         -0.2356
 286       4.053e+00      -8.677e+00       4.091e-01          -0.808          -0.355           0.470       6.344e-02         -3.5969
 287       4.122e+00      -8.676e+00       4.605e-01          -0.378          -0.140           0.915       9.498e-02         -3.9324
 288       4.255e+00      -8.675e+00       4.967e-01          -0.180          -0.048           0.982       1.415e-01         -2.1970
 289       4.445e+00      -8.675e+00       5.222e-01          -0.097          -0.011           0.995       1.839e-01         -1.4654
 290       4.680e+00      -8.675e+00       5.384e-01          -0.044           0.011           0.999       2.166e-01         -1.1169
 291       4.948e+00      -8.674e+00       5.445e-01          -0.003           0.027           1.000       2.373e-01         -0.9082
 292       5.232e+00      -8.675e+00       5.397e-01           0.036           0.041           0.999       2.447e-01         -0.7651
 293       5.517e+00      -8.675e+00       5.234e-01           0.079           0.056           0.995       2.383e-01         -0.6466
 294       5.784e+00      -8.675e+00       4.953e-01           0.132           0.072           0.989       2.187e-01         -0.5165
 295       6.020e+00      -8.676e+00       4.574e-01           0.189           0.089           0.978       1.869e-01         -0.3646
 296       6.210e+00      -8.676e+00       4.159e-01           0.243           0.103           0.965       1.438e-01         -0.1906
 297       6.343e+00      -8.677e+00       3.803e-01           0.280           0.112           0.953       9.080e-02         -0.0549
 298       6.411e+00      -8.677e+00       3.561e-01           0.464           0.153           0.873       3.370e-02          0.1939
Strip 12
 299       6.198e+00      -7.802e+00       3.072e-01          -0.063          -0.062          -0.996       3.412e-02          0.1298
 300       6.124e+00      -7.802e+00       3.195e-01          -0.196          -0.093          -0.976       1.024e-01          0.3539
 301       5.980e+00      -7.801e+00       3.340e-01          -0.039          -0.054          -0.998       1.605e-01          0.4465
 302       5.775e+00      -7.802e+00       3.231e-01           0.123          -0.011          -0.992       2.128e-01          0.4109
 303       5.520e+00      -7.802e+00       2.791e-01           0.209           0.015          -0.978       2.556e-01          0.2987
 304       5.230e+00      -7.803e+00       2.209e-01           0.185           0.008          -0.983       2.789e-01          0.1544
 305       4.923e+00      -7.803e+00       1.784e-01           0.089          -0.026          -0.996       2.834e-01          0.0938
 306       4.615e+00      -7.804e+00       1.629e-01           0.010          -0.055          -0.998       2.743e-01          0.1492
 307       4.326e+00      -7.804e+00       1.676e-01          -0.045          -0.077          -0.996       2.507e-01          0.2573
 308       4.071e+00      -7.803e+00       1.855e-01          -0.099          -0.099          -0.990       2.131e-01          0.4007
 309       3.865e+00      -7.803e+00       2.132e-01          -0.177          -0.132          -0.975       1.641e-01          0.5973
 310       3.722e+00      -7.803e+00       2.520e-01          -0.372          -0.216          -0.903       1.105e-01          0.8074
 311       3.647e+00      -7.802e+00       3.077e-01          -0.801          -0.392          -0.452       7.440e-02         -0.1656
 312       3.647e+00      -7.801e+00       3.733e-01          -0.808          -0.355           0.469       7.315e-02         -3.4571
 313       3.722e+00      -7.800e+00       4.289e-01          -0.378          -0.140           0.915       1.095e-01         -3.8304
 314       3.865e+00      -7.800e+00       4.681e-01          -0.180          -0.048           0.982       1.632e-01         -2.1489
 315       4.071e+00      -7.799e+00       4.957e-01          -0.097          -0.011           0.995       2.121e-01         -1.4372
 316       4.326e+00      -7.799e+00       5.133e-01          -0.044           0.011           0.999       2.499e-01         -1.0980
 317       4.615e+00      -7.799e+00       5.198e-01          -0.003           0.027           1.000       2.738e-01         -0.8947
 318       4.923e+00      -7.799e+00       5.146e-01           0.036           0.041           0.999       2.823e-01         -0.7553
 319       5.230e+00      -7.799e+00       4.970e-01           0.079           0.056           0.995       2.749e-01         -0.6394
 320       5.520e+00      -7.800e+00       4.666e-01           0.132           0.072           0.989       2.524e-01         -0.5113
 321       5.775e+00      -7.800e+00       4.256e-01           0.189           0.089           0.978       2.157e-01         -0.3610
 322       5.980e+00      -7.801e+00       3.807e-01           0.243           0.103           0.965       1.659e-01         -0.1886
 323       6.124e+00      -7.801e+00       3.422e-01           0.280           0.112           0.953       1.048e-01         -0.0540
 324       6.198e+00      -7.802e+00       3.160e-01           0.464           0.153           0.873       3.888e-02          0.1937
Strip 13
 325       5.972e+00      -6.873e+00       2.640e-01          -0.063          -0.062          -0.996       3.890e-02          0.1294
 326       5.892e+00      -6.873e+00       2.772e-01          -0.196          -0.093          -0.976       1.167e-01          0.3540
 327       5.736e+00      -6.873e+00       2.930e-01          -0.039          -0.054          -0.998       1.830e-01          0.4466
 328       5.515e+00      -6.873e+00       2.811e-01           0.123          -0.010          -0.992       2.426e-01          0.4105
 329       5.239e+00      -6.873e+00       2.336e-01           0.209           0.015          -0.978       2.914e-01          0.2969
 330       4.926e+00      -6.874e+00       1.708e-01           0.185           0.008          -0.983       3.179e-01          0.1500
 331       4.594e+00      -6.874e+00       1.249e-01           0.089          -0.026          -0.996       3.231e-01          0.0866
 332       4.262e+00      -6.874e+00       1.081e-01           0.010          -0.055          -0.998       3.127e-01          0.1399
 333       3.950e+00      -6.874e+00       1.131e-01          -0.045          -0.077          -0.996       2.858e-01          0.2460
 334       3.674e+00      -6.874e+00       1.325e-01          -0.099          -0.099          -0.990       2.430e-01          0.3874
 335       3.452e+00      -6.874e+00       1.624e-01          -0.177          -0.132          -0.975       1.871e-01          0.5828
 336       3.297e+00      -6.873e+00       2.043e-01          -0.372          -0.216          -0.903       1.261e-01          0.8066
 337       3.217e+00      -6.873e+00       2.645e-01          -0.801          -0.392          -0.453       8.486e-02         -0.0868
 338       3.217e+00      -6.872e+00       3.354e-01          -0.809          -0.356           0.469       8.337e-02         -3.2947
 339       3.297e+00      -6.871e+00       3.954e-01          -0.379          -0.140           0.915       1.248e-01         -3.7104
 340       3.452e+00      -6.871e+00       4.378e-01          -0.180          -0.048           0.982       1.860e-01         -2.0917
 341       3.674e+00      -6.871e+00       4.676e-01          -0.097          -0.011           0.995       2.418e-01         -1.4033
 342       3.950e+00      -6.870e+00       4.865e-01          -0.044           0.011           0.999       2.849e-01         -1.0750
 343       4.262e+00      -6.870e+00       4.936e-01          -0.003           0.027           1.000       3.122e-01         -0.8782
 344       4.594e+00      -6.870e+00       4.880e-01           0.036           0.041           0.999       3.218e-01         -0.7431
 345       4.926e+00      -6.871e+00       4.690e-01           0.079           0.056           0.995       3.135e-01         -0.6302
 346       5.239e+00      -6.871e+00       4.362e-01           0.132           0.072           0.989       2.878e-01         -0.5046
 347       5.515e+00      -6.871e+00       3.919e-01           0.189           0.089           0.978       2.459e-01         -0.3566
 348       5.736e+00      -6.872e+00       3.434e-01           0.243           0.103           0.965       1.892e-01         -0.1860
 349       5.892e+00      -6.872e+00       3.018e-01           0.280           0.112           0.953       1.195e-01         -0.0530
 350       5.972e+00      -6.873e+00       2.735e-01           0.464           0.153           0.873       4.434e-02          0.1933
Strip 14
 351       5.734e+00      -5.897e+00       2.186e-01          -0.063          -0.062          -0.996       4.385e-02          0.1288
 352       5.648e+00      -5.897e+00       2.329e-01          -0.196          -0.093          -0.976       1.316e-01          0.3538
 353       5.480e+00      -5.897e+00       2.498e-01          -0.039          -0.054          -0.998       2.063e-01          0.4464
 354       5.241e+00      -5.897e+00       2.371e-01           0.123          -0.010          -0.992       2.734e-01          0.4097
 355       4.945e+00      -5.897e+00       1.858e-01           0.209           0.015          -0.978       3.284e-01          0.2945
 356       4.607e+00      -5.898e+00       1.181e-01           0.186           0.008          -0.983       3.584e-01          0.1445
 357       4.249e+00      -5.898e+00       6.858e-02           0.089          -0.026          -0.996       3.642e-01          0.0779
 358       3.891e+00      -5.898e+00       5.053e-02           0.010          -0.055          -0.998       3.526e-01          0.1287
 359       3.554e+00      -5.898e+00       5.595e-02          -0.045          -0.077          -0.996       3.222e-01          0.2326
 360       3.258e+00      -5.898e+00       7.676e-02          -0.099          -0.099          -0.990       2.739e-01          0.3716
 361       3.018e+00      -5.898e+00       1.090e-01          -0.177          -0.132          -0.975       2.110e-01          0.5654
 362       2.851e+00      -5.897e+00       1.542e-01          -0.372          -0.216          -0.903       1.422e-01          0.8035
 363       2.765e+00      -5.897e+00       2.191e-01          -0.800          -0.392          -0.453       9.570e-02         -0.0009
 364       2.765e+00      -5.896e+00       2.955e-01          -0.809          -0.356           0.468       9.395e-02         -3.1108
 365       2.851e+00      -5.896e+00       3.603e-01          -0.379          -0.140           0.915       1.407e-01         -3.5724
 366       3.018e+00      -5.895e+00       4.059e-01          -0.180          -0.048           0.982       2.097e-01         -2.0259
 367       3.258e+00      -5.895e+00       4.381e-01          -0.097          -0.011           0.995       2.726e-01         -1.3642
 368       3.554e+00      -5.895e+00       4.585e-01          -0.044           0.011           0.999       3.212e-01         -1.0484
 369       3.891e+00      -5.895e+00       4.661e-01          -0.003           0.027           1.000       3.519e-01         -0.8589
 370       4.249e+00      -5.895e+00       4.601e-01           0.036           0.041           0.999       3.628e-01         -0.7287
 371       4.607e+00      -5.895e+00       4.396e-01           0.079           0.056           0.995       3.534e-01         -0.6196
 372       4.945e+00      -5.895e+00       4.042e-01           0.132           0.072           0.989       3.244e-01         -0.4970
 373       5.241e+00      -5.896e+00       3.565e-01           0.189           0.089           0.978       2.772e-01         -0.3515
 374       5.480e+00      -5.896e+00       3.042e-01           0.243           0.103           0.965       2.133e-01         -0.1831
 375       5.648e+00      -5.897e+00       2.593e-01           0.280           0.111           0.953       1.347e-01         -0.0520
 376       5.734e+00      -5.897e+00       2.288e-01           0.463           0.153           0.873       5.000e-02          0.1928
Strip 15
 377       5.487e+00      -4.881e+00       1.713e-01          -0.063          -0.062          -0.996       4.890e-02          0.1278
 378       5.394e+00      -4.881e+00       1.866e-01          -0.196          -0.093          -0.976       1.467e-01          0.3534
 379       5.214e+00      -4.880e+00       2.049e-01          -0.039          -0.054          -0.998       2.301e-01          0.4460
 380       4.957e+00      -4.880e+00       1.911e-01           0.123          -0.010          -0.992       3.049e-01          0.4087
 381       4.638e+00      -4.881e+00       1.361e-01           0.209           0.015          -0.978       3.662e-01          0.2916
 382       4.275e+00      -4.881e+00       6.322e-02           0.186           0.008          -0.983       3.995e-01          0.1381
 383       3.890e+00      -4.882e+00       9.981e-03           0.089          -0.026          -0.996       4.060e-01          0.0677
 384       3.505e+00      -4.882e+00      -9.435e-03           0.010          -0.055          -0.998       3.931e-01          0.1157
 385       3.143e+00      -4.882e+00      -3.610e-03          -0.045          -0.077          -0.996       3.593e-01          0.2170
 386       2.824e+00      -4.882e+00       1.878e-02          -0.099          -0.099          -0.990       3.055e-01          0.3531
 387       2.567e+00      -4.881e+00       5.347e-02          -0.177          -0.132          -0.975       2.353e-01          0.5446
 388       2.386e+00      -4.881e+00       1.021e-01          -0.372          -0.216          -0.903       1.586e-01          0.7974
 389       2.294e+00      -4.881e+00       1.718e-01          -0.800          -0.392          -0.454       1.067e-01          0.0920
 390       2.294e+00      -4.880e+00       2.540e-01          -0.809          -0.356           0.468       1.047e-01         -2.9045
 391       2.386e+00      -4.880e+00       3.237e-01          -0.379          -0.140           0.915       1.568e-01         -3.4158
 392       2.567e+00      -4.879e+00       3.727e-01          -0.180          -0.048           0.982       2.337e-01         -1.9507
 393       2.824e+00      -4.879e+00       4.074e-01          -0.097          -0.011           0.995       3.039e-01         -1.3194
 394       3.143e+00      -4.879e+00       4.293e-01          -0.044           0.011           0.999       3.581e-01         -1.0181
 395       3.505e+00      -4.879e+00       4.374e-01          -0.003           0.027           1.000       3.924e-01         -0.8371
 396       3.890e+00      -4.879e+00       4.310e-01           0.036           0.041           0.999       4.046e-01         -0.7126
 397       4.275e+00      -4.879e+00       4.089e-01           0.079           0.056           0.995       3.940e-01         -0.6077
 398       4.638e+00      -4.879e+00       3.709e-01           0.132           0.072           0.989       3.618e-01         -0.4885
 399       4.957e+00      -4.880e+00       3.195e-01           0.189           0.089           0.978       3.092e-01         -0.3459
 400       5.214e+00      -4.880e+00       2.633e-01           0.243           0.102           0.965       2.379e-01         -0.1801
 401       5.394e+00      -4.880e+00       2.151e-01           0.280           0.111           0.953       1.502e-01         -0.0512
 402       5.487e+00      -4.881e+00       1.823e-01           0.463           0.153           0.873       5.576e-02          0.1918
Strip 16
 403       5.231e+00      -3.831e+00       1.224e-01          -0.063          -0.062          -0.996       5.395e-02          0.1267
 404       5.132e+00      -3.831e+00       1.389e-01          -0.196          -0.093          -0.976       1.619e-01          0.3529
 405       4.939e+00      -3.831e+00       1.584e-01          -0.039          -0.054          -0.998       2.538e-01          0.4456
 406       4.663e+00      -3.831e+00       1.437e-01           0.123          -0.010          -0.992       3.363e-01          0.4075
 407       4.321e+00      -3.831e+00       8.466e-02           0.209           0.015          -0.978       4.039e-01          0.2881
 408       3.932e+00      -3.832e+00       6.545e-03           0.186           0.008          -0.983       4.407e-01          0.1306
 409       3.519e+00      -3.832e+00      -5.054e-02           0.089          -0.026          -0.996       4.479e-01          0.0560
 410       3.106e+00      -3.832e+00      -7.137e-02           0.010          -0.055          -0.998       4.337e-01          0.1009
 411       2.718e+00      -3.832e+00      -6.512e-02          -0.045          -0.077          -0.996       3.964e-01          0.1991
 412       2.376e+00      -3.832e+00      -4.111e-02          -0.099          -0.099          -0.990       3.370e-01          0.3316
 413       2.100e+00      -3.832e+00      -3.905e-03          -0.177          -0.132          -0.975       2.596e-01          0.5197
 414       1.907e+00      -3.831e+00       4.821e-02          -0.372          -0.216          -0.903       1.750e-01          0.7871
 415       1.807e+00      -3.831e+00       1.230e-01          -0.800          -0.392          -0.454       1.178e-01          0.1922
 416       1.807e+00      -3.831e+00       2.112e-01          -0.809          -0.356           0.467       1.155e-01         -2.6710
 417       1.907e+00      -3.830e+00       2.858e-01          -0.379          -0.140           0.915       1.729e-01         -3.2355
 418       2.100e+00      -3.830e+00       3.385e-01          -0.180          -0.048           0.982       2.578e-01         -1.8639
 419       2.376e+00      -3.830e+00       3.756e-01          -0.097          -0.011           0.995       3.353e-01         -1.2680
 420       2.718e+00      -3.830e+00       3.991e-01          -0.044           0.011           0.999       3.951e-01         -0.9835
 421       3.106e+00      -3.830e+00       4.079e-01          -0.003           0.027           1.000       4.329e-01         -0.8127
 422       3.519e+00      -3.830e+00       4.009e-01           0.036           0.041           0.999       4.463e-01         -0.6952
 423       3.932e+00      -3.830e+00       3.773e-01           0.079           0.056           0.995       4.347e-01         -0.5952
 424       4.321e+00      -3.830e+00       3.365e-01           0.132           0.072           0.989       3.991e-01         -0.4799
 425       4.663e+00      -3.830e+00       2.814e-01           0.189           0.089           0.978       3.411e-01         -0.3405
 426       4.939e+00      -3.831e+00       2.211e-01           0.243           0.102           0.965       2.624e-01         -0.1773
 427       5.132e+00      -3.831e+00       1.694e-01           0.280           0.111           0.953       1.657e-01         -0.0506
 428       5.231e+00      -3.831e+00       1.342e-01           0.463           0.153           0.873       6.152e-02          0.1905
Strip 17
 429       4.969e+00      -2.755e+00       7.237e-02          -0.063          -0.062          -0.996       5.890e-02          0.1249
 430       4.863e+00      -2.755e+00       8.997e-02          -0.196          -0.093          -0.976       1.768e-01          0.3521
 431       4.656e+00      -2.755e+00       1.109e-01          -0.039          -0.054          -0.998       2.771e-01          0.4449
 432       4.362e+00      -2.755e+00       9.515e-02           0.123          -0.010          -0.992       3.672e-01          0.4060
 433       3.996e+00      -2.755e+00       3.198e-02           0.209           0.015          -0.978       4.409e-01          0.2842
 434       3.580e+00      -2.756e+00      -5.154e-02           0.186           0.008          -0.983       4.811e-01          0.1222
 435       3.139e+00      -2.756e+00      -1.126e-01           0.089          -0.026          -0.996       4.890e-01          0.0430
 436       2.698e+00      -2.756e+00      -1.348e-01           0.010          -0.055          -0.998       4.735e-01          0.0843
 437       2.282e+00      -2.756e+00      -1.282e-01          -0.045          -0.077          -0.996       4.328e-01          0.1790
 438       1.916e+00      -2.756e+00      -1.025e-01          -0.099          -0.099          -0.990       3.680e-01          0.3069
 439       1.621e+00      -2.756e+00      -6.271e-02          -0.177          -0.132          -0.975       2.835e-01          0.4898
 440       1.415e+00      -2.756e+00      -6.988e-03          -0.372          -0.216          -0.903       1.911e-01          0.7708
 441       1.308e+00      -2.755e+00       7.298e-02          -0.800          -0.392          -0.455       1.286e-01          0.3026
 442       1.308e+00      -2.755e+00       1.672e-01          -0.810          -0.356           0.467       1.261e-01         -2.3982
 443       1.415e+00      -2.755e+00       2.471e-01          -0.379          -0.140           0.915       1.888e-01         -3.0194
 444       1.621e+00      -2.755e+00       3.033e-01          -0.180          -0.048           0.982       2.814e-01         -1.7594
 445       1.916e+00      -2.754e+00       3.430e-01          -0.097          -0.011           0.995       3.660e-01         -1.2068
 446       2.282e+00      -2.754e+00       3.682e-01          -0.044           0.011           0.999       4.313e-01         -0.9438
 447       2.698e+00      -2.754e+00       3.775e-01          -0.003           0.027           1.000       4.726e-01         -0.7862
 448       3.139e+00      -2.754e+00       3.701e-01           0.036           0.041           0.999       4.873e-01         -0.6775
 449       3.580e+00      -2.754e+00       3.449e-01           0.079           0.056           0.995       4.746e-01         -0.5837
 450       3.996e+00      -2.755e+00       3.012e-01           0.132           0.072           0.989       4.358e-01         -0.4727
 451       4.362e+00      -2.755e+00       2.424e-01           0.189           0.089           0.978       3.724e-01         -0.3364
 452       4.656e+00      -2.755e+00       1.779e-01           0.243           0.102           0.965       2.865e-01         -0.1758
 453       4.863e+00      -2.755e+00       1.226e-01           0.280           0.111           0.953       1.810e-01         -0.0512
 454       4.969e+00      -2.755e+00       8.497e-02           0.463           0.153           0.873       6.718e-02          0.1881
Strip 18
 455       4.703e+00      -1.661e+00       2.142e-02          -0.063          -0.062          -0.996       6.364e-02          0.1222
 456       4.590e+00      -1.661e+00       4.018e-02          -0.195          -0.093          -0.976       1.910e-01          0.3509
 457       4.369e+00      -1.661e+00       6.245e-02          -0.039          -0.054          -0.998       2.994e-01          0.4440
 458       4.055e+00      -1.661e+00       4.570e-02           0.123          -0.010          -0.992       3.967e-01          0.4039
 459       3.665e+00      -1.661e+00      -2.163e-02           0.209           0.015          -0.978       4.764e-01          0.2790
 460       3.222e+00      -1.661e+00      -1.106e-01           0.186           0.008          -0.983       5.199e-01          0.1122
 461       2.752e+00      -1.661e+00      -1.757e-01           0.089          -0.026          -0.996       5.284e-01          0.0288
 462       2.282e+00      -1.661e+00      -1.994e-01           0.010          -0.055          -0.998       5.116e-01          0.0674
 463       1.839e+00      -1.661e+00      -1.923e-01          -0.045          -0.077          -0.996       4.677e-01          0.1585
 464       1.449e+00      -1.661e+00      -1.649e-01          -0.099          -0.099          -0.990       3.976e-01          0.2804
 465       1.135e+00      -1.661e+00      -1.225e-01          -0.177          -0.132          -0.975       3.063e-01          0.4548
 466       9.146e-01      -1.661e+00      -6.316e-02          -0.372          -0.216          -0.903       2.065e-01          0.7467
 467       8.012e-01      -1.661e+00       2.208e-02          -0.800          -0.392          -0.455       1.390e-01          0.4327
 468       8.012e-01      -1.661e+00       1.225e-01          -0.810          -0.356           0.466       1.362e-01         -2.0548
 469       9.146e-01      -1.660e+00       2.076e-01          -0.379          -0.140           0.915       2.039e-01         -2.7365
 470       1.135e+00      -1.660e+00       2.676e-01          -0.180          -0.048           0.982       3.041e-01         -1.6209
 471       1.449e+00      -1.660e+00       3.099e-01          -0.097          -0.011           0.995       3.955e-01         -1.1278
 472       1.839e+00      -1.660e+00       3.367e-01          -0.044           0.011           0.999       4.661e-01         -0.8959
 473       2.282e+00      -1.660e+00       3.467e-01          -0.003           0.027           1.000       5.107e-01         -0.7581
 474       2.752e+00      -1.660e+00       3.388e-01           0.036           0.041           0.999       5.266e-01         -0.6627
 475       3.222e+00      -1.660e+00       3.119e-01           0.079           0.056           0.995       5.129e-01         -0.5778
 476       3.665e+00      -1.660e+00       2.654e-01           0.132           0.072           0.989       4.709e-01         -0.4720
 477       4.055e+00      -1.660e+00       2.026e-01           0.189           0.089           0.978       4.025e-01         -0.3380
 478       4.369e+00      -1.661e+00       1.339e-01           0.243           0.102           0.965       3.097e-01         -0.1783
 479       4.590e+00      -1.661e+00       7.496e-02           0.280           0.111           0.954       1.956e-01         -0.0545
 480       4.703e+00      -1.661e+00       3.486e-02           0.463           0.153           0.873       7.260e-02          0.1836
Strip 19
 481       4.434e+00      -5.548e-01      -3.005e-02          -0.063          -0.062          -0.996       6.808e-02          0.1191
 482       4.313e+00      -5.548e-01      -1.012e-02          -0.195          -0.093          -0.976       2.043e-01          0.3498
 483       4.079e+00      -5.548e-01       1.354e-02          -0.039          -0.054          -0.998       3.203e-01          0.4423
 484       3.746e+00      -5.548e-01      -4.252e-03           0.123          -0.010          -0.992       4.243e-01          0.3971
 485       3.331e+00      -5.549e-01      -7.578e-02           0.209           0.015          -0.978       5.096e-01          0.2646
 486       2.861e+00      -5.549e-01      -1.704e-01           0.186           0.008          -0.983       5.560e-01          0.0938
 487       2.361e+00      -5.550e-01      -2.395e-01           0.089          -0.026          -0.996       5.652e-01          0.0148
 488       1.861e+00      -5.550e-01      -2.647e-01           0.010          -0.055          -0.998       5.472e-01          0.0603
 489       1.391e+00      -5.550e-01      -2.571e-01          -0.045          -0.077          -0.996       5.003e-01          0.1535
 490       9.767e-01      -5.550e-01      -2.281e-01          -0.099          -0.099          -0.990       4.254e-01          0.2704
 491       6.430e-01      -5.549e-01      -1.830e-01          -0.177          -0.132          -0.975       3.277e-01          0.4307
 492       4.091e-01      -5.549e-01      -1.199e-01          -0.371          -0.216          -0.903       2.209e-01          0.7157
 493       2.886e-01      -5.548e-01      -2.935e-02          -0.799          -0.392          -0.456       1.488e-01          0.5969
 494       2.886e-01      -5.548e-01       7.738e-02          -0.810          -0.356           0.466       1.456e-01         -1.5188
 495       4.091e-01      -5.547e-01       1.678e-01          -0.379          -0.140           0.915       2.181e-01         -2.2404
 496       6.430e-01      -5.547e-01       2.315e-01          -0.180          -0.048           0.982       3.252e-01         -1.3675
 497       9.767e-01      -5.547e-01       2.765e-01          -0.097          -0.011           0.995       4.230e-01         -0.9986
 498       1.391e+00      -5.547e-01       3.049e-01          -0.044           0.011           0.999       4.985e-01         -0.8340
 499       1.861e+00      -5.547e-01       3.155e-01          -0.003           0.027           1.000       5.463e-01         -0.7327
 500       2.361e+00      -5.547e-01       3.071e-01           0.036           0.041           0.999       5.633e-01         -0.6618
 501       2.861e+00      -5.547e-01       2.785e-01           0.079           0.056           0.995       5.486e-01         -0.5935
 502       3.331e+00      -5.547e-01       2.291e-01           0.132           0.072           0.989       5.037e-01         -0.4957
 503       3.746e+00      -5.547e-01       1.625e-01           0.189           0.089           0.978       4.305e-01         -0.3612
 504       4.079e+00      -5.548e-01       8.947e-02           0.243           0.102           0.965       3.313e-01         -0.1962
 505       4.313e+00      -5.548e-01       2.683e-02           0.280           0.111           0.954       2.092e-01         -0.0667
 506       4.434e+00      -5.548e-01      -1.577e-02           0.463           0.153           0.873       7.767e-02          0.1742
Strip 20
 507       4.434e+00       5.548e-01      -3.005e-02          -0.063           0.062          -0.996       6.808e-02          0.1191
 508       4.313e+00       5.548e-01      -1.012e-02          -0.195           0.093          -0.976       2.043e-01          0.3498
 509       4.079e+00       5.548e-01       1.354e-02          -0.039           0.054          -0.998       3.203e-01          0.4423
 510       3.746e+00       5.548e-01      -4.252e-03           0.123           0.010          -0.992       4.243e-01          0.3971
 511       3.331e+00       5.549e-01      -7.578e-02           0.209          -0.015          -0.978       5.096e-01          0.2646
 512       2.861e+00       5.549e-01      -1.704e-01           0.186          -0.008          -0.983       5.560e-01          0.0938
 513       2.361e+00       5.550e-01      -2.395e-01           0.089           0.026          -0.996       5.652e-01          0.0148
 514       1.861e+00       5.550e-01      -2.647e-01           0.010           0.055          -0.998       5.472e-01          0.0603
 515       1.391e+00       5.550e-01      -2.571e-01          -0.045           0.077          -0.996       5.003e-01          0.1535
 516       9.767e-01       5.550e-01      -2.281e-01          -0.099           0.099          -0.990       4.254e-01          0.2704
 517       6.430e-01       5.549e-01      -1.830e-01          -0.177           0.132          -0.975       3.277e-01          0.4307
 518       4.091e-01       5.549e-01      -1.199e-01          -0.371           0.216          -0.903       2.209e-01          0.7157
 519       2.886e-01       5.548e-01      -2.935e-02          -0.799           0.392          -0.456       1.488e-01          0.5969
 520       2.886e-01       5.548e-01       7.738e-02          -0.810           0.356           0.466       1.456e-01         -1.5188
 521       4.091e-01       5.547e-01       1.678e-01          -0.379           0.140           0.915       2.181e-01         -2.2404
 522       6.430e-01       5.547e-01       2.315e-01          -0.180           0.048           0.982       3.252e-01         -1.3675
 523       9.767e-01       5.547e-01       2.765e-01          -0.097           0.011           0.995       4.230e-01         -0.9986
 524       1.391e+00       5.547e-01       3.049e-01          -0.044          -0.011           0.999       4.985e-01         -0.8340
 525       1.861e+00       5.547e-01       3.155e-01          -0.003          -0.027           1.000       5.463e-01         -0.7327
 526       2.361e+00       5.547e-01       3.071e-01           0.036          -0.041           0.999       5.633e-01         -0.6618
 527       2.861e+00       5.547e-01       2.785e-01           0.079          -0.056           0.995       5.486e-01         -0.5935
 528       3.331e+00       5.547e-01       2.291e-01           0.132          -0.072           0.989       5.037e-01         -0.4957
 529       3.746e+00       5.547e-01       1.625e-01           0.189          -0.089           0.978       4.305e-01         -0.3612
 530       4.079e+00       5.548e-01       8.947e-02           0.243          -0.102           0.965       3.313e-01         -0.1962
 531       4.313e+00       5.548e-01       2.683e-02           0.280          -0.111           0.954       2.092e-01         -0.0667
 532       4.434e+00       5.548e-01      -1.577e-02           0.463          -0.153           0.873       7.767e-02          0.1742
Strip 21
 533       4.703e+00       1.661e+00       2.142e-02          -0.063           0.062          -0.996       6.364e-02          0.1222
 534       4.590e+00       1.661e+00       4.018e-02          -0.195           0.093          -0.976       1.910e-01          0.3509
 535       4.369e+00       1.661e+00       6.245e-02          -0.039           0.054          -0.998       2.994e-01          0.4440
 536       4.055e+00       1.661e+00       4.570e-02           0.123           0.010          -0.992       3.967e-01          0.4039
 537       3.665e+00       1.661e+00      -2.163e-02           0.209          -0.015          -0.978       4.764e-01          0.2790
 538       3.222e+00       1.661e+00      -1.106e-01           0.186          -0.008          -0.983       5.199e-01          0.1122
 539       2.752e+00       1.661e+00      -1.757e-01           0.089           0.026          -0.996       5.284e-01          0.0288
 540       2.282e+00       1.661e+00      -1.994e-01           0.010           0.055          -0.998       5.116e-01          0.0674
 541       1.839e+00       1.661e+00      -1.923e-01          -0.045           0.077          -0.996       4.677e-01          0.1585
 542       1.449e+00       1.661e+00      -1.649e-01          -0.099           0.099          -0.990       3.976e-01          0.2804
 543       1.135e+00       1.661e+00      -1.225e-01          -0.177           0.132          -0.975       3.063e-01          0.4548
 544       9.146e-01       1.661e+00      -6.316e-02          -0.372           0.216          -0.903       2.065e-01          0.7467
 545       8.012e-01       1.661e+00       2.208e-02          -0.800           0.392          -0.455       1.390e-01          0.4327
 546       8.012e-01       1.661e+00       1.225e-01          -0.810           0.356           0.466       1.362e-01         -2.0548
 547       9.146e-01       1.660e+00       2.076e-01          -0.379           0.140           0.915       2.039e-01         -2.7365
 548       1.135e+00       1.660e+00       2.676e-01          -0.180           0.048           0.982       3.041e-01         -1.6209
 549       1.449e+00       1.660e+00       3.099e-01          -0.097           0.011           0.995       3.955e-01         -1.1278
 550       1.839e+00       1.660e+00       3.367e-01          -0.044          -0.011           0.999       4.661e-01         -0.8959
 551       2.282e+00       1.660e+00       3.467e-01          -0.003          -0.027           1.000       5.107e-01         -0.7581
 552       2.752e+00       1.660e+00       3.388e-01           0.036          -0.041           0.999       5.266e-01         -0.6627
 553       3.222e+00       1.660e+00       3.119e-01           0.079          -0.056           0.995       5.129e-01         -0.5778
 554       3.665e+00       1.660e+00       2.654e-01           0.132          -0.072           0.989       4.709e-01         -0.4720
 555       4.055e+00       1.660e+00       2.026e-01           0.189          -0.089           0.978       4.025e-01         -0.3380
 556       4.369e+00       1.661e+00       1.339e-01           0.243          -0.102           0.965       3.097e-01         -0.1783
 557       4.590e+00       1.661e+00       7.496e-02           0.280          -0.111           0.954       1.956e-01         -0.0545
 558       4.703e+00       1.661e+00       3.486e-02           0.463          -0.153           0.873       7.260e-02          0.1836
Strip 22
 559       4.969e+00       2.755e+00       7.237e-02          -0.063           0.062          -0.996       5.890e-02          0.1249
 560       4.863e+00       2.755e+00       8.997e-02          -0.196           0.093          -0.976       1.768e-01          0.3521
 561       4.656e+00       2.755e+00       1.109e-01          -0.039           0.054          -0.998       2.771e-01          0.4449
 562       4.362e+00       2.755e+00       9.515e-02           0.123           0.010          -0.992       3.672e-01          0.4060
 563       3.996e+00       2.755e+00       3.198e-02           0.209          -0.015          -0.978       4.409e-01          0.2842
 564       3.580e+00       2.756e+00      -5.154e-02           0.186          -0.008          -0.983       4.811e-01          0.1222
 565       3.139e+00       2.756e+00      -1.126e-01           0.089           0.026          -0.996       4.890e-01          0.0430
 566       2.698e+00       2.756e+00      -1.348e-01           0.010           0.055          -0.998       4.735e-01          0.0843
 567       2.282e+00       2.756e+00      -1.282e-01          -0.045           0.077          -0.996       4.328e-01          0.1790
[...]
 852       6.234e+00       1.207e+01       4.143e-01           0.010           0.055          -0.998       9.364e-02          0.1297
 853       6.051e+00       1.207e+01       4.173e-01          -0.045           0.077          -0.996       8.554e-02          0.2454
 854       5.890e+00       1.206e+01       4.286e-01          -0.099           0.099          -0.990       7.268e-02          0.3984
 855       5.760e+00       1.206e+01       4.461e-01          -0.177           0.132          -0.975       5.594e-02          0.6031
 856       5.669e+00       1.206e+01       4.706e-01          -0.373           0.217          -0.902       3.762e-02          0.7961
 857       5.622e+00       1.206e+01       5.058e-01          -0.804           0.393          -0.446       2.531e-02         -0.3118
 858       5.622e+00       1.206e+01       5.473e-01          -0.806           0.354           0.475       2.505e-02         -3.6973
 859       5.669e+00       1.206e+01       5.824e-01          -0.377           0.139           0.916       3.750e-02         -3.9793
 860       5.760e+00       1.206e+01       6.072e-01          -0.180           0.048           0.983       5.578e-02         -2.2058
 861       5.890e+00       1.206e+01       6.247e-01          -0.097           0.011           0.995       7.247e-02         -1.4550
 862       6.051e+00       1.206e+01       6.357e-01          -0.044          -0.011           0.999       8.534e-02         -1.0953
 863       6.234e+00       1.206e+01       6.398e-01          -0.003          -0.027           1.000       9.347e-02         -0.8798
 864       6.429e+00       1.206e+01       6.366e-01           0.036          -0.041           0.999       9.633e-02         -0.7340
 865       6.623e+00       1.206e+01       6.255e-01           0.079          -0.056           0.995       9.379e-02         -0.6173
 866       6.806e+00       1.206e+01       6.063e-01           0.132          -0.072           0.989       8.608e-02         -0.4934
 867       6.968e+00       1.206e+01       5.803e-01           0.190          -0.089           0.978       7.354e-02         -0.3499
 868       7.097e+00       1.206e+01       5.520e-01           0.243          -0.103           0.965       5.657e-02         -0.1834
 869       7.189e+00       1.206e+01       5.276e-01           0.281          -0.112           0.953       3.572e-02         -0.0547
 870       7.235e+00       1.206e+01       5.111e-01           0.465          -0.153           0.872       1.325e-02          0.1944
Strip 34
 871       7.344e+00       1.251e+01       5.263e-01          -0.063           0.062          -0.996       9.050e-03          0.1022
 872       7.300e+00       1.251e+01       5.335e-01          -0.196           0.093          -0.976       2.713e-02          0.3151
 873       7.214e+00       1.251e+01       5.422e-01          -0.039           0.054          -0.998       4.259e-02          0.3990
 874       7.092e+00       1.251e+01       5.357e-01           0.123           0.011          -0.992       5.650e-02          0.3578
 875       6.941e+00       1.251e+01       5.096e-01           0.209          -0.015          -0.978       6.792e-02          0.2417
 876       6.769e+00       1.251e+01       4.751e-01           0.185          -0.008          -0.983       7.411e-02          0.0947
 877       6.586e+00       1.251e+01       4.498e-01           0.089           0.026          -0.996       7.525e-02          0.0337
 878       6.404e+00       1.251e+01       4.406e-01           0.010           0.055          -0.998       7.279e-02          0.0931
 879       6.232e+00       1.251e+01       4.434e-01          -0.045           0.077          -0.996       6.649e-02          0.2096
 880       6.080e+00       1.251e+01       4.540e-01          -0.099           0.099          -0.990       5.649e-02          0.3650
 881       5.958e+00       1.251e+01       4.704e-01          -0.177           0.132          -0.975       4.347e-02          0.5743
 882       5.873e+00       1.251e+01       4.935e-01          -0.374           0.217          -0.902       2.923e-02          0.7899
 883       5.829e+00       1.251e+01       5.265e-01          -0.804           0.393          -0.446       1.967e-02         -0.2236
 884       5.829e+00       1.251e+01       5.655e-01          -0.805           0.354           0.476       1.948e-02         -3.4982
 885       5.873e+00       1.251e+01       5.985e-01          -0.377           0.139           0.916       2.916e-02         -3.8179
 886       5.958e+00       1.250e+01       6.217e-01          -0.180           0.048           0.983       4.337e-02         -2.1167
 887       6.080e+00       1.250e+01       6.381e-01          -0.097           0.011           0.995       5.634e-02         -1.3895
 888       6.232e+00       1.250e+01       6.485e-01          -0.044          -0.011           0.999       6.634e-02         -1.0390
 889       6.404e+00       1.250e+01       6.524e-01          -0.003          -0.027           1.000       7.266e-02         -0.8291
 890       6.586e+00       1.250e+01       6.493e-01           0.036          -0.041           0.999       7.488e-02         -0.6893
 891       6.769e+00       1.250e+01       6.389e-01           0.079          -0.056           0.995       7.290e-02         -0.5803
 892       6.941e+00       1.250e+01       6.209e-01           0.132          -0.072           0.989       6.691e-02         -0.4664
 893       7.092e+00       1.251e+01       5.965e-01           0.190          -0.089           0.978       5.716e-02         -0.3341
 894       7.214e+00       1.251e+01       5.699e-01           0.243          -0.103           0.965       4.396e-02         -0.1773
 895       7.300e+00       1.251e+01       5.470e-01           0.281          -0.112           0.953       2.776e-02         -0.0564
 896       7.344e+00       1.251e+01       5.315e-01           0.465          -0.153           0.872       1.029e-02          0.1911
Strip 35
 897       7.432e+00       1.287e+01       5.430e-01          -0.063           0.062          -0.996       6.732e-03          0.0716
 898       7.390e+00       1.287e+01       5.499e-01          -0.196           0.093          -0.976       2.018e-02          0.2760
 899       7.309e+00       1.287e+01       5.581e-01          -0.039           0.054          -0.998       3.168e-02          0.3541
 900       7.193e+00       1.287e+01       5.520e-01           0.122           0.011          -0.992       4.204e-02          0.3107
 901       7.050e+00       1.287e+01       5.272e-01           0.209          -0.015          -0.978       5.053e-02          0.1933
 902       6.887e+00       1.287e+01       4.945e-01           0.185          -0.008          -0.983       5.514e-02          0.0435
 903       6.714e+00       1.287e+01       4.706e-01           0.089           0.026          -0.996       5.598e-02         -0.0219
 904       6.541e+00       1.287e+01       4.619e-01           0.010           0.055          -0.998       5.415e-02          0.0337
 905       6.378e+00       1.287e+01       4.645e-01          -0.045           0.077          -0.996       4.946e-02          0.1484
 906       6.234e+00       1.287e+01       4.746e-01          -0.099           0.099          -0.990       4.202e-02          0.3055
 907       6.118e+00       1.287e+01       4.901e-01          -0.178           0.132          -0.975       3.233e-02          0.5210
 908       6.037e+00       1.287e+01       5.120e-01          -0.374           0.217          -0.902       2.173e-02          0.7715
 909       5.996e+00       1.287e+01       5.433e-01          -0.805           0.394          -0.445       1.462e-02         -0.0886
 910       5.996e+00       1.287e+01       5.802e-01          -0.805           0.354           0.477       1.450e-02         -3.1849
 911       6.037e+00       1.287e+01       6.115e-01          -0.377           0.139           0.916       2.171e-02         -3.5618
 912       6.118e+00       1.286e+01       6.335e-01          -0.180           0.048           0.983       3.227e-02         -1.9719
 913       6.234e+00       1.286e+01       6.491e-01          -0.097           0.011           0.995       4.192e-02         -1.2816
 914       6.378e+00       1.286e+01       6.589e-01          -0.044          -0.011           0.999       4.935e-02         -0.9468
 915       6.541e+00       1.286e+01       6.626e-01          -0.003          -0.027           1.000       5.405e-02         -0.7488
 916       6.714e+00       1.286e+01       6.597e-01           0.036          -0.041           0.999       5.570e-02         -0.6225
 917       6.887e+00       1.286e+01       6.498e-01           0.079          -0.056           0.995       5.423e-02         -0.5294
 918       7.050e+00       1.286e+01       6.327e-01           0.132          -0.072           0.989       4.976e-02         -0.4338
 919       7.193e+00       1.287e+01       6.096e-01           0.190          -0.089           0.978       4.251e-02         -0.3208
 920       7.309e+00       1.287e+01       5.844e-01           0.243          -0.103           0.964       3.270e-02         -0.1807
 921       7.390e+00       1.287e+01       5.627e-01           0.281          -0.112           0.953       2.065e-02         -0.0724
 922       7.432e+00       1.287e+01       5.480e-01           0.465          -0.153           0.872       7.656e-03          0.1737
Strip 36
 923       7.498e+00       1.314e+01       5.557e-01          -0.063           0.062          -0.996       4.639e-03         -0.0206
 924       7.458e+00       1.314e+01       5.623e-01          -0.196           0.093          -0.976       1.391e-02          0.1668
 925       7.380e+00       1.314e+01       5.702e-01          -0.039           0.054          -0.998       2.183e-02          0.2380
 926       7.270e+00       1.314e+01       5.643e-01           0.122           0.011          -0.992       2.897e-02          0.2014
 927       7.132e+00       1.314e+01       5.406e-01           0.209          -0.015          -0.978       3.483e-02          0.0979
 928       6.976e+00       1.314e+01       5.092e-01           0.185          -0.007          -0.983       3.800e-02         -0.0388
 929       6.810e+00       1.314e+01       4.863e-01           0.089           0.026          -0.996       3.859e-02         -0.0996
 930       6.644e+00       1.314e+01       4.780e-01           0.010           0.055          -0.998       3.732e-02         -0.0504
 931       6.488e+00       1.314e+01       4.805e-01          -0.045           0.077          -0.996       3.409e-02          0.0520
 932       6.350e+00       1.314e+01       4.901e-01          -0.099           0.099          -0.990       2.895e-02          0.1999
 933       6.240e+00       1.314e+01       5.050e-01          -0.178           0.132          -0.975       2.228e-02          0.4184
 934       6.162e+00       1.314e+01       5.259e-01          -0.374           0.217          -0.902       1.497e-02          0.7155
 935       6.122e+00       1.314e+01       5.559e-01          -0.805           0.394          -0.444       1.007e-02          0.0777
 936       6.122e+00       1.314e+01       5.913e-01          -0.804           0.353           0.478       9.998e-03         -2.7500
 937       6.162e+00       1.314e+01       6.213e-01          -0.377           0.139           0.916       1.496e-02         -3.1936
 938       6.240e+00       1.314e+01       6.424e-01          -0.180           0.048           0.983       2.225e-02         -1.7551
 939       6.350e+00       1.314e+01       6.573e-01          -0.097           0.011           0.995       2.889e-02         -1.1190
 940       6.488e+00       1.314e+01       6.667e-01          -0.044          -0.011           0.999       3.402e-02         -0.8144
 941       6.644e+00       1.314e+01       6.702e-01          -0.003          -0.027           1.000       3.725e-02         -0.6459
 942       6.810e+00       1.314e+01       6.675e-01           0.036          -0.041           0.999       3.839e-02         -0.5501
 943       6.976e+00       1.314e+01       6.580e-01           0.079          -0.056           0.995       3.737e-02         -0.4885
 944       7.132e+00       1.314e+01       6.416e-01           0.132          -0.072           0.989       3.429e-02         -0.4259
 945       7.270e+00       1.314e+01       6.195e-01           0.190          -0.089           0.978       2.929e-02         -0.3477
 946       7.380e+00       1.314e+01       5.953e-01           0.243          -0.103           0.964       2.253e-02         -0.2399
 947       7.458e+00       1.314e+01       5.746e-01           0.281          -0.112           0.953       1.423e-02         -0.1556
 948       7.498e+00       1.314e+01       5.604e-01           0.465          -0.153           0.872       5.275e-03          0.0901
Strip 37
 949       7.542e+00       1.332e+01       5.642e-01          -0.063           0.062          -0.996       2.715e-03         -0.4661
 950       7.504e+00       1.332e+01       5.706e-01          -0.196           0.093          -0.976       8.137e-03         -0.3306
 951       7.428e+00       1.332e+01       5.782e-01          -0.039           0.054          -0.998       1.277e-02         -0.2251
 952       7.321e+00       1.332e+01       5.725e-01           0.122           0.011          -0.992       1.695e-02         -0.1376
 953       7.187e+00       1.332e+01       5.495e-01           0.209          -0.015          -0.978       2.038e-02         -0.1110
 954       7.036e+00       1.333e+01       5.191e-01           0.185          -0.007          -0.983       2.224e-02         -0.1653
 955       6.874e+00       1.333e+01       4.968e-01           0.089           0.026          -0.996       2.258e-02         -0.1904
 956       6.713e+00       1.333e+01       4.887e-01           0.010           0.055          -0.998       2.184e-02         -0.1423
 957       6.562e+00       1.333e+01       4.912e-01          -0.045           0.077          -0.996       1.994e-02         -0.0663
 958       6.428e+00       1.333e+01       5.005e-01          -0.099           0.099          -0.990       1.694e-02          0.0403
 959       6.321e+00       1.333e+01       5.150e-01          -0.178           0.132          -0.975       1.303e-02          0.2214
 960       6.245e+00       1.332e+01       5.353e-01          -0.374           0.217          -0.902       8.759e-03          0.5406
 961       6.207e+00       1.332e+01       5.644e-01          -0.805           0.394          -0.443       5.893e-03          0.1875
 962       6.207e+00       1.332e+01       5.988e-01          -0.804           0.353           0.478       5.852e-03         -2.2023
 963       6.245e+00       1.332e+01       6.279e-01          -0.377           0.139           0.916       8.759e-03         -2.6828
 964       6.321e+00       1.332e+01       6.484e-01          -0.180           0.048           0.983       1.302e-02         -1.4406
 965       6.428e+00       1.332e+01       6.628e-01          -0.097           0.011           0.995       1.691e-02         -0.9035
 966       6.562e+00       1.332e+01       6.720e-01          -0.044          -0.011           0.999       1.990e-02         -0.6726
 967       6.713e+00       1.332e+01       6.754e-01          -0.003          -0.027           1.000       2.180e-02         -0.5614
 968       6.874e+00       1.332e+01       6.727e-01           0.036          -0.041           0.999       2.246e-02         -0.5119
 969       7.036e+00       1.332e+01       6.635e-01           0.079          -0.056           0.995       2.187e-02         -0.5066
 970       7.187e+00       1.332e+01       6.476e-01           0.132          -0.072           0.989       2.007e-02         -0.5371
 971       7.321e+00       1.332e+01       6.261e-01           0.190          -0.089           0.978       1.714e-02         -0.5979
 972       7.428e+00       1.332e+01       6.027e-01           0.243          -0.103           0.964       1.318e-02         -0.6406
 973       7.504e+00       1.332e+01       5.825e-01           0.281          -0.112           0.953       8.324e-03         -0.6563
 974       7.542e+00       1.332e+01       5.688e-01           0.465          -0.153           0.872       3.086e-03         -0.4275
Strip 38
 975       7.565e+00       1.341e+01       5.685e-01          -0.063           0.062          -0.996       8.932e-04         -1.0080
 976       7.527e+00       1.341e+01       5.748e-01          -0.196           0.093          -0.976       2.677e-03         -0.9780
 977       7.452e+00       1.341e+01       5.823e-01          -0.039           0.054          -0.998       4.203e-03         -0.8655
 978       7.346e+00       1.341e+01       5.767e-01           0.122           0.011          -0.992       5.579e-03         -0.6201
 979       7.215e+00       1.342e+01       5.540e-01           0.209          -0.015          -0.978       6.708e-03         -0.3956
 980       7.065e+00       1.342e+01       5.240e-01           0.185          -0.007          -0.983       7.319e-03         -0.2976
 981       6.907e+00       1.342e+01       5.021e-01           0.089           0.026          -0.996       7.430e-03         -0.2479
 982       6.748e+00       1.342e+01       4.941e-01           0.010           0.055          -0.998       7.186e-03         -0.1898
 983       6.599e+00       1.342e+01       4.965e-01          -0.045           0.077          -0.996       6.563e-03         -0.1312
 984       6.467e+00       1.342e+01       5.057e-01          -0.099           0.099          -0.990       5.574e-03         -0.0570
 985       6.362e+00       1.342e+01       5.200e-01          -0.178           0.132          -0.975       4.288e-03          0.0794
 986       6.287e+00       1.342e+01       5.400e-01          -0.374           0.217          -0.902       2.882e-03          0.3659
 987       6.249e+00       1.341e+01       5.687e-01          -0.805           0.394          -0.443       1.939e-03          0.2832
 988       6.249e+00       1.341e+01       6.025e-01          -0.804           0.353           0.478       1.926e-03         -1.5600
 989       6.287e+00       1.341e+01       6.312e-01          -0.376           0.139           0.916       2.883e-03         -2.0759
 990       6.362e+00       1.341e+01       6.513e-01          -0.180           0.048           0.983       4.284e-03         -1.1124
 991       6.467e+00       1.341e+01       6.656e-01          -0.097           0.011           0.995       5.564e-03         -0.7259
 992       6.599e+00       1.341e+01       6.746e-01          -0.044          -0.011           0.999       6.550e-03         -0.5783
 993       6.748e+00       1.341e+01       6.780e-01          -0.003          -0.027           1.000       7.172e-03         -0.5074
 994       6.907e+00       1.341e+01       6.753e-01           0.036          -0.041           0.999       7.391e-03         -0.4758
 995       7.065e+00       1.341e+01       6.662e-01           0.079          -0.056           0.995       7.195e-03         -0.4861
 996       7.215e+00       1.341e+01       6.506e-01           0.132          -0.072           0.989       6.602e-03         -0.5693
 997       7.346e+00       1.341e+01       6.295e-01           0.190          -0.089           0.978       5.640e-03         -0.7704
 998       7.452e+00       1.341e+01       6.064e-01           0.243          -0.103           0.964       4.337e-03         -1.0397
 999       7.527e+00       1.341e+01       5.865e-01           0.281          -0.112           0.953       2.739e-03         -1.2173
1000       7.565e+00       1.341e+01       5.730e-01           0.465          -0.153           0.872       1.015e-03         -1.0498










