xflr5 v6.61

 Calculated polar for: NACA 2208

 1 1 Reynolds number fixed          Mach number fixed         

 xtrf =   1.000 (top)        1.000 (bottom)
 Mach =   0.200     Re =     4.800 e 6     Ncrit =   9.000

  alpha     CL        CD       CDp       Cm    Top Xtr Bot Xtr   Cpmin    Chinge    XCp    
 ------- -------- --------- --------- -------- ------- ------- -------- --------- ---------
  -5.000  -0.3578   0.00747   0.00343  -0.0381  0.8359  0.0068  -5.1104   0.0000   0.0000   0.0000   0.1391
  -4.900  -0.3465   0.00743   0.00335  -0.0380  0.8248  0.0068  -4.9402   0.0000   0.0000   0.0000   0.1360
  -4.800  -0.3350   0.00736   0.00327  -0.0379  0.8193  0.0068  -4.7730   0.0000   0.0000   0.0000   0.1325
  -4.700  -0.3237   0.00729   0.00316  -0.0379  0.8111  0.0068  -4.6121   0.0000   0.0000   0.0000   0.1288
  -4.600  -0.3127   0.00717   0.00298  -0.0377  0.8009  0.0069  -4.4620   0.0000   0.0000   0.0000   0.1252
  -4.500  -0.3015   0.00700   0.00276  -0.0376  0.7942  0.0069  -4.3175   0.0000   0.0000   0.0000   0.1211
  -4.400  -0.2901   0.00693   0.00266  -0.0375  0.7865  0.0069  -4.1637   0.0000   0.0000   0.0000   0.1165
  -4.300  -0.2788   0.00688   0.00256  -0.0374  0.7760  0.0069  -4.0141   0.0000   0.0000   0.0000   0.1116
  -4.200  -0.2674   0.00680   0.00245  -0.0373  0.7676  0.0069  -3.8671   0.0000   0.0000   0.0000   0.1062
  -4.100  -0.2561   0.00671   0.00232  -0.0373  0.7602  0.0069  -3.7245   0.0000   0.0000   0.0000   0.1003
  -4.000  -0.2450   0.00656   0.00211  -0.0371  0.7497  0.0070  -3.5976   0.0000   0.0000   0.0000   0.0943
  -3.900  -0.2338   0.00644   0.00191  -0.0370  0.7400  0.0070  -3.4836   0.0000   0.0000   0.0000   0.0875
  -3.800  -0.2224   0.00632   0.00175  -0.0369  0.7328  0.0071  -3.4002   0.0000   0.0000   0.0000   0.0798
  -3.700  -0.2112   0.00624   0.00159  -0.0368  0.7221  0.0073  -3.3212   0.0000   0.0000   0.0000   0.0715
  -3.600  -0.1999   0.00607   0.00137  -0.0366  0.7116  0.0103  -3.3016   0.0000   0.0000   0.0000   0.0624
  -3.500  -0.1884   0.00604   0.00133  -0.0366  0.7044  0.0113  -3.1918   0.0000   0.0000   0.0000   0.0513
  -3.400  -0.1770   0.00604   0.00130  -0.0366  0.6932  0.0117  -3.0807   0.0000   0.0000   0.0000   0.0389
  -3.300  -0.1655   0.00604   0.00127  -0.0365  0.6822  0.0119  -2.9697   0.0000   0.0000   0.0000   0.0246
  -3.200  -0.1539   0.00603   0.00125  -0.0365  0.6747  0.0120  -2.8593   0.0000   0.0000   0.0000   0.0079
  -3.100  -0.1425   0.00604   0.00123  -0.0365  0.6629  0.0121  -2.7511   0.0000   0.0000   0.0000  -0.0110
  -3.000  -0.1309   0.00604   0.00120  -0.0365  0.6524  0.0121  -2.6442   0.0000   0.0000   0.0000  -0.0337
  -2.800  -0.1080   0.00603   0.00113  -0.0364  0.6317  0.0124  -2.4333   0.0000   0.0000   0.0000  -0.0929
  -2.700  -0.0965   0.00599   0.00104  -0.0364  0.6221  0.0133  -2.3459   0.0000   0.0000   0.0000  -0.1331
  -2.600  -0.0850   0.00595   0.00098  -0.0364  0.6132  0.0158  -2.2588   0.0000   0.0000   0.0000  -0.1840
  -2.500  -0.0736   0.00595   0.00095  -0.0363  0.6000  0.0173  -2.1652   0.0000   0.0000   0.0000  -0.2500
  -2.400  -0.0621   0.00593   0.00092  -0.0363  0.5915  0.0182  -2.0709   0.0000   0.0000   0.0000  -0.3425
  -2.300  -0.0506   0.00594   0.00090  -0.0363  0.5816  0.0186  -1.9776   0.0000   0.0000   0.0000  -0.4765
  -2.200  -0.0392   0.00596   0.00088  -0.0363  0.5676  0.0188  -1.8859   0.0000   0.0000   0.0000  -0.6871
  -2.100  -0.0276   0.00594   0.00084  -0.0363  0.5604  0.0202  -1.7976   0.0000   0.0000   0.0000  -1.0793
  -2.000  -0.0162   0.00594   0.00082  -0.0363  0.5487  0.0229  -1.7110   0.0000   0.0000   0.0000  -2.0143
  -1.900  -0.0048   0.00594   0.00080  -0.0363  0.5352  0.0248  -1.6246   0.0000   0.0000   0.0000  -7.4298
  -1.800   0.0067   0.00594   0.00078  -0.0363  0.5251  0.0262  -1.5392   0.0000   0.0000   0.0000   5.6849
  -1.700   0.0181   0.00598   0.00076  -0.0362  0.5084  0.0268  -1.4556   0.0000   0.0000   0.0000   2.2696
  -1.600   0.0296   0.00598   0.00074  -0.0362  0.4995  0.0288  -1.3733   0.0000   0.0000   0.0000   1.4819
  -1.500   0.0409   0.00600   0.00073  -0.0362  0.4839  0.0321  -1.2935   0.0000   0.0000   0.0000   1.1403
  -1.400   0.0524   0.00599   0.00071  -0.0362  0.4743  0.0346  -1.2140   0.0000   0.0000   0.0000   0.9444
  -1.300   0.0639   0.00601   0.00070  -0.0362  0.4637  0.0361  -1.1361   0.0000   0.0000   0.0000   0.8195
  -1.200   0.0753   0.00603   0.00068  -0.0362  0.4502  0.0394  -1.0602   0.0000   0.0000   0.0000   0.7327
  -1.100   0.0868   0.00601   0.00067  -0.0362  0.4436  0.0452  -0.9969   0.0000   0.0000   0.0000   0.6685
  -1.000   0.0982   0.00603   0.00066  -0.0362  0.4321  0.0468  -0.9369   0.0000   0.0000   0.0000   0.6196
  -0.900   0.1097   0.00605   0.00065  -0.0362  0.4209  0.0509  -0.8811   0.0000   0.0000   0.0000   0.5807
  -0.800   0.1212   0.00604   0.00064  -0.0362  0.4135  0.0558  -0.8261   0.0000   0.0000   0.0000   0.5492
  -0.700   0.1325   0.00607   0.00063  -0.0362  0.4013  0.0587  -0.7721   0.0000   0.0000   0.0000   0.5233
  -0.600   0.1440   0.00607   0.00063  -0.0362  0.3924  0.0643  -0.7186   0.0000   0.0000   0.0000   0.5013
  -0.500   0.1555   0.00607   0.00062  -0.0362  0.3845  0.0699  -0.6661   0.0000   0.0000   0.0000   0.4827
  -0.400   0.1669   0.00611   0.00062  -0.0362  0.3715  0.0736  -0.6146   0.0000   0.0000   0.0000   0.4666
  -0.300   0.1784   0.00610   0.00062  -0.0363  0.3640  0.0819  -0.5637   0.0000   0.0000   0.0000   0.4526
  -0.200   0.1898   0.00612   0.00062  -0.0363  0.3543  0.0867  -0.5407   0.0000   0.0000   0.0000   0.4403
  -0.100   0.2011   0.00614   0.00062  -0.0363  0.3410  0.0960  -0.5522   0.0000   0.0000   0.0000   0.4294
   0.000   0.2126   0.00614   0.00062  -0.0363  0.3349  0.1039  -0.5639   0.0000   0.0000   0.0000   0.4196
   0.100   0.2239   0.00614   0.00063  -0.0363  0.3249  0.1183  -0.5755   0.0000   0.0000   0.0000   0.4109
   0.200   0.2353   0.00613   0.00064  -0.0363  0.3149  0.1363  -0.5872   0.0000   0.0000   0.0000   0.4031
   0.300   0.2468   0.00609   0.00064  -0.0363  0.3110  0.1591  -0.5990   0.0000   0.0000   0.0000   0.3959
   0.400   0.2581   0.00604   0.00064  -0.0363  0.3052  0.1882  -0.6107   0.0000   0.0000   0.0000   0.3895
   0.500   0.2686   0.00575   0.00063  -0.0364  0.2981  0.3167  -0.6218   0.0000   0.0000   0.0000   0.3840
   0.600   0.2798   0.00565   0.00063  -0.0364  0.2902  0.3644  -0.6334   0.0000   0.0000   0.0000   0.3786
   0.700   0.2911   0.00556   0.00064  -0.0364  0.2878  0.4057  -0.6452   0.0000   0.0000   0.0000   0.3736
   0.800   0.3024   0.00548   0.00064  -0.0364  0.2842  0.4449  -0.6571   0.0000   0.0000   0.0000   0.3689
   0.900   0.3135   0.00539   0.00066  -0.0365  0.2793  0.4925  -0.6696   0.0000   0.0000   0.0000   0.3646
   1.000   0.3246   0.00532   0.00067  -0.0365  0.2732  0.5360  -0.6824   0.0000   0.0000   0.0000   0.3606
   1.100   0.3359   0.00527   0.00068  -0.0365  0.2661  0.5689  -0.6953   0.0000   0.0000   0.0000   0.3568
   1.200   0.3472   0.00522   0.00069  -0.0365  0.2644  0.5959  -0.7084   0.0000   0.0000   0.0000   0.3532
   1.300   0.3585   0.00515   0.00071  -0.0365  0.2622  0.6323  -0.7215   0.0000   0.0000   0.0000   0.3498
   1.500   0.3809   0.00503   0.00074  -0.0364  0.2570  0.7018  -0.7477   0.0000   0.0000   0.0000   0.3436
   1.600   0.3922   0.00500   0.00075  -0.0364  0.2542  0.7234  -0.7610   0.0000   0.0000   0.0000   0.3408
   1.700   0.4033   0.00495   0.00077  -0.0364  0.2507  0.7581  -0.7740   0.0000   0.0000   0.0000   0.3380
   1.800   0.4143   0.00488   0.00079  -0.0363  0.2465  0.7969  -0.7871   0.0000   0.0000   0.0000   0.3354
   1.900   0.4252   0.00482   0.00082  -0.0362  0.2427  0.8303  -0.8002   0.0000   0.0000   0.0000   0.3328
   2.000   0.4362   0.00477   0.00084  -0.0361  0.2418  0.8565  -0.8134   0.0000   0.0000   0.0000   0.3303
   2.100   0.4469   0.00471   0.00086  -0.0358  0.2411  0.8857  -0.8276   0.0000   0.0000   0.0000   0.3278
   2.200   0.4574   0.00467   0.00088  -0.0356  0.2402  0.9101  -0.8417   0.0000   0.0000   0.0000   0.3254
   2.300   0.4679   0.00465   0.00090  -0.0353  0.2392  0.9285  -0.8558   0.0000   0.0000   0.0000   0.3230
   2.400   0.4778   0.00463   0.00093  -0.0349  0.2380  0.9482  -0.8696   0.0000   0.0000   0.0000   0.3205
   2.500   0.4877   0.00463   0.00095  -0.0345  0.2366  0.9655  -0.8834   0.0000   0.0000   0.0000   0.3181
   2.600   0.4986   0.00464   0.00097  -0.0343  0.2349  0.9787  -0.8980   0.0000   0.0000   0.0000   0.3161
   2.700   0.5123   0.00467   0.00100  -0.0348  0.2328  0.9864  -0.9146   0.0000   0.0000   0.0000   0.3152
   3.100   0.5709   0.00482   0.00108  -0.0377  0.2212  0.9990  -0.9896   0.0000   0.0000   0.0000   0.3130
   3.200   0.5841   0.00485   0.00111  -0.0381  0.2194  0.9996  -1.0076   0.0000   0.0000   0.0000   0.3121
   3.300   0.5970   0.00486   0.00113  -0.0384  0.2191  1.0000  -1.0271   0.0000   0.0000   0.0000   0.3112
   3.400   0.6080   0.00488   0.00114  -0.0383  0.2184  1.0000  -1.0450   0.0000   0.0000   0.0000   0.3097
   3.500   0.6190   0.00491   0.00117  -0.0382  0.2170  1.0000  -1.0635   0.0000   0.0000   0.0000   0.3084
   3.600   0.6299   0.00494   0.00119  -0.0381  0.2139  1.0000  -1.1037   0.0000   0.0000   0.0000   0.3070
   3.700   0.6408   0.00500   0.00122  -0.0379  0.2095  1.0000  -1.1512   0.0000   0.0000   0.0000   0.3057
   3.800   0.6517   0.00505   0.00125  -0.0378  0.2055  1.0000  -1.2035   0.0000   0.0000   0.0000   0.3045
   3.900   0.6627   0.00510   0.00128  -0.0377  0.2009  1.0000  -1.2567   0.0000   0.0000   0.0000   0.3033
   4.000   0.6739   0.00514   0.00131  -0.0376  0.1973  1.0000  -1.3109   0.0000   0.0000   0.0000   0.3021
   4.100   0.6851   0.00517   0.00133  -0.0376  0.1952  1.0000  -1.3659   0.0000   0.0000   0.0000   0.3010
   4.200   0.6960   0.00525   0.00137  -0.0375  0.1882  1.0000  -1.4209   0.0000   0.0000   0.0000   0.3000
   4.300   0.7069   0.00534   0.00142  -0.0374  0.1795  1.0000  -1.4834   0.0000   0.0000   0.0000   0.2989
   4.400   0.7186   0.00532   0.00145  -0.0374  0.1854  1.0000  -1.5618   0.0000   0.0000   0.0000   0.2979
   4.500   0.7296   0.00540   0.00149  -0.0373  0.1770  1.0000  -1.6345   0.0000   0.0000   0.0000   0.2970
   4.600   0.7408   0.00544   0.00153  -0.0372  0.1736  1.0000  -1.7086   0.0000   0.0000   0.0000   0.2960
   4.700   0.7515   0.00559   0.00160  -0.0371  0.1606  1.0000  -1.7811   0.0000   0.0000   0.0000   0.2951
   4.800   0.7621   0.00573   0.00168  -0.0370  0.1462  1.0000  -1.8545   0.0000   0.0000   0.0000   0.2941
   4.900   0.7724   0.00592   0.00178  -0.0368  0.1280  1.0000  -1.9274   0.0000   0.0000   0.0000   0.2932
   5.000   0.7826   0.00614   0.00191  -0.0366  0.1084  1.0000  -2.0004   0.0000   0.0000   0.0000   0.2922
   5.100   0.7930   0.00633   0.00202  -0.0365  0.0933  1.0000  -2.0754   0.0000   0.0000   0.0000   0.2913
   5.200   0.8037   0.00647   0.00211  -0.0363  0.0816  1.0000  -2.1525   0.0000   0.0000   0.0000   0.2905
   5.300   0.8143   0.00663   0.00222  -0.0362  0.0700  1.0000  -2.2302   0.0000   0.0000   0.0000   0.2896
   5.400   0.8249   0.00680   0.00233  -0.0361  0.0588  1.0000  -2.3087   0.0000   0.0000   0.0000   0.2888
   5.500   0.8357   0.00694   0.00243  -0.0359  0.0515  1.0000  -2.3889   0.0000   0.0000   0.0000   0.2880
   5.600   0.8466   0.00706   0.00251  -0.0359  0.0448  1.0000  -2.4916   0.0000   0.0000   0.0000   0.2872
   5.700   0.8574   0.00720   0.00261  -0.0357  0.0380  1.0000  -2.5966   0.0000   0.0000   0.0000   0.2864
   5.800   0.8685   0.00729   0.00269  -0.0357  0.0343  1.0000  -2.7055   0.0000   0.0000   0.0000   0.2857
   5.900   0.8793   0.00742   0.00279  -0.0355  0.0301  1.0000  -2.8147   0.0000   0.0000   0.0000   0.2850
   6.000   0.8904   0.00751   0.00286  -0.0355  0.0265  1.0000  -2.9269   0.0000   0.0000   0.0000   0.2843
   6.100   0.9016   0.00759   0.00295  -0.0354  0.0252  1.0000  -3.0470   0.0000   0.0000   0.0000   0.2836
   6.200   0.9126   0.00770   0.00304  -0.0353  0.0228  1.0000  -3.1634   0.0000   0.0000   0.0000   0.2829
   6.300   0.9236   0.00781   0.00313  -0.0352  0.0196  1.0000  -3.2808   0.0000   0.0000   0.0000   0.2823
   6.400   0.9348   0.00789   0.00321  -0.0351  0.0184  1.0000  -3.4013   0.0000   0.0000   0.0000   0.2816
   6.500   0.9459   0.00798   0.00329  -0.0351  0.0174  1.0000  -3.5233   0.0000   0.0000   0.0000   0.2810
   6.600   0.9569   0.00808   0.00338  -0.0350  0.0159  1.0000  -3.6460   0.0000   0.0000   0.0000   0.2804
   6.700   0.9679   0.00820   0.00348  -0.0349  0.0140  1.0000  -3.7696   0.0000   0.0000   0.0000   0.2797
   6.800   0.9790   0.00829   0.00357  -0.0348  0.0122  1.0000  -3.8939   0.0000   0.0000   0.0000   0.2791
   6.900   0.9901   0.00837   0.00365  -0.0347  0.0120  1.0000  -4.0240   0.0000   0.0000   0.0000   0.2785
   7.000   1.0013   0.00845   0.00373  -0.0346  0.0117  1.0000  -4.1552   0.0000   0.0000   0.0000   0.2780
   7.100   1.0124   0.00854   0.00382  -0.0346  0.0110  1.0000  -4.2873   0.0000   0.0000   0.0000   0.2774
   7.200   1.0233   0.00866   0.00392  -0.0345  0.0101  1.0000  -4.4197   0.0000   0.0000   0.0000   0.2768
   7.300   1.0342   0.00879   0.00404  -0.0343  0.0088  1.0000  -4.5496   0.0000   0.0000   0.0000   0.2762
   7.400   1.0450   0.00895   0.00421  -0.0341  0.0072  1.0000  -4.6664   0.0000   0.0000   0.0000   0.2755
   7.600   1.0671   0.00914   0.00442  -0.0339  0.0069  1.0000  -4.9445   0.0000   0.0000   0.0000   0.2744
   7.700   1.0782   0.00922   0.00449  -0.0339  0.0068  1.0000  -5.0933   0.0000   0.0000   0.0000   0.2739
   7.900   1.1005   0.00939   0.00468  -0.0337  0.0068  1.0000  -5.3825   0.0000   0.0000   0.0000   0.2729
   8.000   1.1116   0.00947   0.00476  -0.0336  0.0067  1.0000  -5.5349   0.0000   0.0000   0.0000   0.2723
   8.100   1.1226   0.00956   0.00485  -0.0335  0.0065  1.0000  -5.6890   0.0000   0.0000   0.0000   0.2718
   8.200   1.1336   0.00966   0.00495  -0.0334  0.0063  1.0000  -5.8436   0.0000   0.0000   0.0000   0.2713
   8.300   1.1445   0.00978   0.00506  -0.0333  0.0058  1.0000  -5.9972   0.0000   0.0000   0.0000   0.2708
   8.400   1.1551   0.00993   0.00519  -0.0331  0.0050  1.0000  -6.1458   0.0000   0.0000   0.0000   0.2703
   8.600   1.1749   0.01053   0.00591  -0.0324  0.0032  1.0000  -6.2698   0.0000   0.0000   0.0000   0.2689
   8.700   1.1851   0.01076   0.00619  -0.0321  0.0032  1.0000  -6.3871   0.0000   0.0000   0.0000   0.2683
   8.800   1.1951   0.01102   0.00649  -0.0318  0.0031  1.0000  -6.5062   0.0000   0.0000   0.0000   0.2676
   8.900   1.2049   0.01130   0.00682  -0.0315  0.0031  1.0000  -6.6252   0.0000   0.0000   0.0000   0.2670
   9.000   1.2147   0.01158   0.00715  -0.0312  0.0031  1.0000  -6.7493   0.0000   0.0000   0.0000   0.2664
   9.100   1.2248   0.01180   0.00740  -0.0309  0.0031  1.0000  -6.8920   0.0000   0.0000   0.0000   0.2658
   9.200   1.2348   0.01203   0.00766  -0.0306  0.0031  1.0000  -7.0361   0.0000   0.0000   0.0000   0.2653
   9.300   1.2448   0.01226   0.00792  -0.0304  0.0031  1.0000  -7.1820   0.0000   0.0000   0.0000   0.2647
   9.400   1.2547   0.01250   0.00819  -0.0301  0.0031  1.0000  -7.3407   0.0000   0.0000   0.0000   0.2641
   9.500   1.2655   0.01261   0.00830  -0.0299  0.0031  1.0000  -7.5497   0.0000   0.0000   0.0000   0.2636
   9.600   1.2755   0.01281   0.00853  -0.0297  0.0031  1.0000  -7.7469   0.0000   0.0000   0.0000   0.2631
   9.700   1.2855   0.01303   0.00877  -0.0294  0.0031  1.0000  -7.9454   0.0000   0.0000   0.0000   0.2626
   9.800   1.2954   0.01325   0.00902  -0.0291  0.0031  1.0000  -8.1462   0.0000   0.0000   0.0000   0.2620
   9.900   1.3053   0.01348   0.00927  -0.0288  0.0030  1.0000  -8.3496   0.0000   0.0000   0.0000   0.2615
  10.000   1.3151   0.01370   0.00952  -0.0285  0.0030  1.0000  -8.5558   0.0000   0.0000   0.0000   0.2609
  10.100   1.3249   0.01393   0.00977  -0.0282  0.0030  1.0000  -8.7651   0.0000   0.0000   0.0000   0.2604
  10.200   1.3347   0.01415   0.01001  -0.0279  0.0030  1.0000  -8.9775   0.0000   0.0000   0.0000   0.2598
  10.300   1.3445   0.01437   0.01026  -0.0276  0.0030  1.0000  -9.1933   0.0000   0.0000   0.0000   0.2593
  10.400   1.3542   0.01459   0.01049  -0.0273  0.0030  1.0000  -9.4125   0.0000   0.0000   0.0000   0.2588
  10.500   1.3640   0.01480   0.01073  -0.0270  0.0030  1.0000  -9.6354   0.0000   0.0000   0.0000   0.2583
  10.600   1.3737   0.01501   0.01096  -0.0268  0.0030  1.0000  -9.8619   0.0000   0.0000   0.0000   0.2577
  10.700   1.3835   0.01522   0.01118  -0.0265  0.0030  1.0000  -10.0923   0.0000   0.0000   0.0000   0.2572
  10.800   1.3933   0.01542   0.01140  -0.0262  0.0030  1.0000  -10.3265   0.0000   0.0000   0.0000   0.2567
  10.900   1.4031   0.01562   0.01162  -0.0259  0.0030  1.0000  -10.5646   0.0000   0.0000   0.0000   0.2562
  11.000   1.4128   0.01581   0.01182  -0.0256  0.0030  1.0000  -10.8066   0.0000   0.0000   0.0000   0.2557
  11.100   1.4226   0.01600   0.01203  -0.0253  0.0030  1.0000  -11.0527   0.0000   0.0000   0.0000   0.2552
  11.200   1.4314   0.01631   0.01238  -0.0249  0.0029  1.0000  -11.2805   0.0000   0.0000   0.0000   0.2546
  11.300   1.4409   0.01652   0.01261  -0.0245  0.0029  1.0000  -11.5287   0.0000   0.0000   0.0000   0.2541
  11.400   1.4506   0.01671   0.01281  -0.0242  0.0029  1.0000  -11.7841   0.0000   0.0000   0.0000   0.2536
  11.500   1.4603   0.01689   0.01300  -0.0239  0.0029  1.0000  -12.0448   0.0000   0.0000   0.0000   0.2531
  11.600   1.4701   0.01707   0.01319  -0.0236  0.0029  1.0000  -12.3098   0.0000   0.0000   0.0000   0.2526
  11.700   1.4798   0.01724   0.01337  -0.0233  0.0029  1.0000  -12.5788   0.0000   0.0000   0.0000   0.2521
  11.800   1.4896   0.01741   0.01355  -0.0230  0.0028  1.0000  -12.8513   0.0000   0.0000   0.0000   0.2516
  11.900   1.4993   0.01758   0.01373  -0.0227  0.0028  1.0000  -13.1273   0.0000   0.0000   0.0000   0.2511
  12.000   1.5089   0.01775   0.01391  -0.0224  0.0028  1.0000  -13.4063   0.0000   0.0000   0.0000   0.2506
  12.100   1.5186   0.01792   0.01409  -0.0221  0.0028  1.0000  -13.6881   0.0000   0.0000   0.0000   0.2502
  12.200   1.5281   0.01810   0.01428  -0.0218  0.0027  1.0000  -13.9726   0.0000   0.0000   0.0000   0.2497
  12.300   1.5376   0.01828   0.01447  -0.0215  0.0027  1.0000  -14.2593   0.0000   0.0000   0.0000   0.2492
  12.400   1.5469   0.01847   0.01467  -0.0211  0.0026  1.0000  -14.5482   0.0000   0.0000   0.0000   0.2487
  12.500   1.5562   0.01866   0.01487  -0.0208  0.0026  1.0000  -14.8388   0.0000   0.0000   0.0000   0.2481
  12.600   1.5654   0.01886   0.01508  -0.0204  0.0026  1.0000  -15.1309   0.0000   0.0000   0.0000   0.2476
  12.700   1.5744   0.01906   0.01530  -0.0200  0.0025  1.0000  -15.4244   0.0000   0.0000   0.0000   0.2471
  12.800   1.5833   0.01928   0.01553  -0.0196  0.0024  1.0000  -15.7190   0.0000   0.0000   0.0000   0.2466
  12.900   1.5925   0.01947   0.01573  -0.0192  0.0024  1.0000  -16.0217   0.0000   0.0000   0.0000   0.2461
  13.000   1.6013   0.01968   0.01595  -0.0188  0.0023  1.0000  -16.3213   0.0000   0.0000   0.0000   0.2455
  13.100   1.6098   0.01991   0.01619  -0.0183  0.0022  1.0000  -16.6197   0.0000   0.0000   0.0000   0.2450
  13.200   1.6182   0.02015   0.01644  -0.0179  0.0021  1.0000  -16.9187   0.0000   0.0000   0.0000   0.2444
  13.300   1.6265   0.02039   0.01670  -0.0174  0.0021  1.0000  -17.2190   0.0000   0.0000   0.0000   0.2439
  13.400   1.6347   0.02063   0.01696  -0.0169  0.0020  1.0000  -17.5205   0.0000   0.0000   0.0000   0.2433
  13.500   1.6426   0.02089   0.01723  -0.0164  0.0019  1.0000  -17.8204   0.0000   0.0000   0.0000   0.2427
  13.600   1.6503   0.02116   0.01751  -0.0158  0.0018  1.0000  -18.1193   0.0000   0.0000   0.0000   0.2421
  13.700   1.6577   0.02144   0.01780  -0.0152  0.0017  1.0000  -18.4169   0.0000   0.0000   0.0000   0.2415
  13.800   1.6649   0.02173   0.01810  -0.0146  0.0016  1.0000  -18.7117   0.0000   0.0000   0.0000   0.2409
  13.900   1.6717   0.02205   0.01843  -0.0140  0.0015  1.0000  -19.0007   0.0000   0.0000   0.0000   0.2403
  14.000   1.6778   0.02239   0.01879  -0.0132  0.0014  1.0000  -19.2773   0.0000   0.0000   0.0000   0.2396
  14.100   1.6823   0.02279   0.01922  -0.0123  0.0013  1.0000  -19.5194   0.0000   0.0000   0.0000   0.2388
  14.200   1.6836   0.02330   0.01976  -0.0109  0.0012  1.0000  -19.6939   0.0000   0.0000   0.0000   0.2378
  14.300   1.6807   0.02403   0.02056  -0.0090  0.0011  1.0000  -19.7698   0.0000   0.0000   0.0000   0.2365
  14.400   1.6730   0.02509   0.02173  -0.0068  0.0010  1.0000  -19.7324   0.0000   0.0000   0.0000   0.2351
  14.500   1.6630   0.02638   0.02313  -0.0048  0.0009  1.0000  -19.6470   0.0000   0.0000   0.0000   0.2337
  14.600   1.6524   0.02784   0.02471  -0.0031  0.0009  1.0000  -19.5540   0.0000   0.0000   0.0000   0.2325
  14.700   1.6419   0.02943   0.02640  -0.0017  0.0008  1.0000  -19.4652   0.0000   0.0000   0.0000   0.2315
  14.800   1.6314   0.03120   0.02828  -0.0009  0.0008  1.0000  -19.3775   0.0000   0.0000   0.0000   0.2308
  14.900   1.6211   0.03309   0.03027  -0.0004  0.0008  1.0000  -19.2957   0.0000   0.0000   0.0000   0.2302
  15.000   1.6110   0.03516   0.03243  -0.0003  0.0008  1.0000  -19.2160   0.0000   0.0000   0.0000   0.2300
  15.100   1.6010   0.03743   0.03479  -0.0007  0.0008  1.0000  -19.1366   0.0000   0.0000   0.0000   0.2300
  15.200   1.5913   0.03987   0.03732  -0.0014  0.0008  1.0000  -19.0578   0.0000   0.0000   0.0000   0.2303
  15.300   1.5817   0.04245   0.03998  -0.0025  0.0008  1.0000  -18.9822   0.0000   0.0000   0.0000   0.2307
  15.400   1.5723   0.04514   0.04274  -0.0038  0.0008  1.0000  -18.9086   0.0000   0.0000   0.0000   0.2313
  15.500   1.5630   0.04798   0.04564  -0.0053  0.0008  1.0000  -18.8344   0.0000   0.0000   0.0000   0.2320


