xflr5 v6.61

 Calculated polar for: NACA 2212

 1 1 Reynolds number fixed          Mach number fixed         

 xtrf =   1.000 (top)        1.000 (bottom)
 Mach =   0.200     Re =     4.800 e 6     Ncrit =   9.000

  alpha     CL        CD       CDp       Cm    Top Xtr Bot Xtr   Cpmin    Chinge    XCp    
 ------- -------- --------- --------- -------- ------- ------- -------- --------- ---------
  -5.000  -0.3622   0.00694   0.00200  -0.0364  0.6991  0.0216  -3.0051   0.0000   0.0000   0.0000   0.1421
  -4.900  -0.3507   0.00691   0.00195  -0.0363  0.6898  0.0230  -2.9334   0.0000   0.0000   0.0000   0.1390
  -4.800  -0.3392   0.00686   0.00190  -0.0363  0.6823  0.0241  -2.8605   0.0000   0.0000   0.0000   0.1356
  -4.700  -0.3276   0.00682   0.00185  -0.0362  0.6775  0.0253  -2.7861   0.0000   0.0000   0.0000   0.1319
  -4.600  -0.3160   0.00679   0.00181  -0.0362  0.6701  0.0259  -2.7143   0.0000   0.0000   0.0000   0.1279
  -4.500  -0.3044   0.00679   0.00177  -0.0362  0.6605  0.0263  -2.6433   0.0000   0.0000   0.0000   0.1237
  -4.400  -0.2927   0.00677   0.00174  -0.0362  0.6529  0.0266  -2.5724   0.0000   0.0000   0.0000   0.1190
  -4.300  -0.2809   0.00674   0.00170  -0.0361  0.6479  0.0268  -2.5019   0.0000   0.0000   0.0000   0.1138
  -4.200  -0.2693   0.00673   0.00167  -0.0361  0.6402  0.0269  -2.4324   0.0000   0.0000   0.0000   0.1082
  -4.100  -0.2577   0.00674   0.00165  -0.0361  0.6302  0.0269  -2.3639   0.0000   0.0000   0.0000   0.1023
  -4.000  -0.2460   0.00670   0.00159  -0.0361  0.6231  0.0283  -2.2979   0.0000   0.0000   0.0000   0.0957
  -3.900  -0.2344   0.00667   0.00155  -0.0360  0.6178  0.0302  -2.2321   0.0000   0.0000   0.0000   0.0884
  -3.800  -0.2228   0.00664   0.00152  -0.0360  0.6098  0.0320  -2.1667   0.0000   0.0000   0.0000   0.0805
  -3.700  -0.2114   0.00663   0.00148  -0.0360  0.5993  0.0334  -2.1020   0.0000   0.0000   0.0000   0.0718
  -3.600  -0.1997   0.00660   0.00145  -0.0359  0.5931  0.0345  -2.0370   0.0000   0.0000   0.0000   0.0618
  -3.500  -0.1880   0.00658   0.00142  -0.0359  0.5874  0.0354  -1.9726   0.0000   0.0000   0.0000   0.0504
  -3.400  -0.1764   0.00658   0.00139  -0.0359  0.5788  0.0360  -1.9093   0.0000   0.0000   0.0000   0.0377
  -3.300  -0.1648   0.00659   0.00137  -0.0359  0.5679  0.0363  -1.8466   0.0000   0.0000   0.0000   0.0233
  -3.200  -0.1530   0.00657   0.00134  -0.0359  0.5628  0.0368  -1.7843   0.0000   0.0000   0.0000   0.0062
  -3.100  -0.1413   0.00655   0.00131  -0.0359  0.5565  0.0392  -1.7237   0.0000   0.0000   0.0000  -0.0134
  -3.000  -0.1298   0.00654   0.00129  -0.0359  0.5473  0.0417  -1.6643   0.0000   0.0000   0.0000  -0.0360
  -2.900  -0.1183   0.00653   0.00125  -0.0359  0.5367  0.0437  -1.6062   0.0000   0.0000   0.0000  -0.0632
  -2.800  -0.1066   0.00651   0.00123  -0.0359  0.5324  0.0453  -1.5467   0.0000   0.0000   0.0000  -0.0973
  -2.700  -0.0949   0.00650   0.00121  -0.0359  0.5253  0.0464  -1.4880   0.0000   0.0000   0.0000  -0.1393
  -2.600  -0.0834   0.00652   0.00119  -0.0358  0.5154  0.0471  -1.4303   0.0000   0.0000   0.0000  -0.1923
  -2.500  -0.0717   0.00651   0.00117  -0.0358  0.5067  0.0501  -1.3734   0.0000   0.0000   0.0000  -0.2634
  -2.400  -0.0600   0.00648   0.00115  -0.0358  0.5018  0.0538  -1.3256   0.0000   0.0000   0.0000  -0.3623
  -2.300  -0.0485   0.00647   0.00113  -0.0358  0.4939  0.0562  -1.2793   0.0000   0.0000   0.0000  -0.5069
  -2.200  -0.0370   0.00649   0.00112  -0.0358  0.4831  0.0579  -1.2336   0.0000   0.0000   0.0000  -0.7402
  -2.100  -0.0252   0.00648   0.00110  -0.0358  0.4767  0.0590  -1.1877   0.0000   0.0000   0.0000  -1.2008
  -2.000  -0.0135   0.00648   0.00108  -0.0358  0.4704  0.0614  -1.1425   0.0000   0.0000   0.0000  -2.4551
  -1.900  -0.0021   0.00649   0.00107  -0.0358  0.4601  0.0655  -1.0985   0.0000   0.0000   0.0000  -17.2827
  -1.800   0.0095   0.00649   0.00106  -0.0358  0.4495  0.0688  -1.0547   0.0000   0.0000   0.0000   4.0984
  -1.700   0.0211   0.00648   0.00105  -0.0358  0.4434  0.0711  -1.0109   0.0000   0.0000   0.0000   1.9692
  -1.600   0.0326   0.00651   0.00104  -0.0358  0.4328  0.0725  -0.9681   0.0000   0.0000   0.0000   1.3620
  -1.500   0.0442   0.00652   0.00103  -0.0358  0.4217  0.0772  -0.9257   0.0000   0.0000   0.0000   1.0699
  -1.400   0.0558   0.00650   0.00102  -0.0358  0.4163  0.0818  -0.8836   0.0000   0.0000   0.0000   0.8981
  -1.300   0.0673   0.00652   0.00101  -0.0358  0.4078  0.0851  -0.8422   0.0000   0.0000   0.0000   0.7863
  -1.100   0.0904   0.00651   0.00099  -0.0358  0.3921  0.0967  -0.7616   0.0000   0.0000   0.0000   0.6480
  -1.000   0.1021   0.00651   0.00099  -0.0358  0.3863  0.1014  -0.7213   0.0000   0.0000   0.0000   0.6022
  -0.900   0.1136   0.00653   0.00099  -0.0358  0.3776  0.1055  -0.6869   0.0000   0.0000   0.0000   0.5660
  -0.800   0.1250   0.00653   0.00098  -0.0358  0.3677  0.1129  -0.6541   0.0000   0.0000   0.0000   0.5365
  -0.700   0.1368   0.00652   0.00098  -0.0358  0.3641  0.1180  -0.6371   0.0000   0.0000   0.0000   0.5117
  -0.600   0.1484   0.00652   0.00098  -0.0358  0.3579  0.1240  -0.6489   0.0000   0.0000   0.0000   0.4909
  -0.500   0.1597   0.00653   0.00098  -0.0358  0.3494  0.1326  -0.6610   0.0000   0.0000   0.0000   0.4733
  -0.300   0.1830   0.00651   0.00097  -0.0358  0.3375  0.1498  -0.6858   0.0000   0.0000   0.0000   0.4445
  -0.200   0.1945   0.00650   0.00097  -0.0358  0.3314  0.1614  -0.6982   0.0000   0.0000   0.0000   0.4327
  -0.100   0.2056   0.00649   0.00097  -0.0358  0.3228  0.1818  -0.7103   0.0000   0.0000   0.0000   0.4223
   0.000   0.2157   0.00622   0.00094  -0.0357  0.3149  0.2722  -0.7216   0.0000   0.0000   0.0000   0.4134
   0.100   0.2268   0.00610   0.00092  -0.0356  0.3114  0.3145  -0.7338   0.0000   0.0000   0.0000   0.4050
   0.200   0.2379   0.00605   0.00093  -0.0356  0.3055  0.3428  -0.7461   0.0000   0.0000   0.0000   0.3974
   0.300   0.2491   0.00602   0.00093  -0.0356  0.2980  0.3670  -0.7583   0.0000   0.0000   0.0000   0.3904
   0.400   0.2603   0.00598   0.00093  -0.0356  0.2903  0.3908  -0.7707   0.0000   0.0000   0.0000   0.3840
   0.500   0.2718   0.00592   0.00093  -0.0356  0.2882  0.4163  -0.7833   0.0000   0.0000   0.0000   0.3782
   0.600   0.2831   0.00586   0.00094  -0.0356  0.2855  0.4435  -0.7958   0.0000   0.0000   0.0000   0.3728
   0.700   0.2944   0.00582   0.00095  -0.0356  0.2818  0.4667  -0.8084   0.0000   0.0000   0.0000   0.3678
   0.800   0.3059   0.00582   0.00096  -0.0356  0.2776  0.4814  -0.8211   0.0000   0.0000   0.0000   0.3632
   0.900   0.3173   0.00580   0.00097  -0.0355  0.2727  0.5002  -0.8338   0.0000   0.0000   0.0000   0.3589
   1.000   0.3289   0.00580   0.00099  -0.0356  0.2672  0.5117  -0.8466   0.0000   0.0000   0.0000   0.3549
   1.100   0.3404   0.00576   0.00099  -0.0356  0.2652  0.5313  -0.8595   0.0000   0.0000   0.0000   0.3512
   1.200   0.3520   0.00572   0.00100  -0.0356  0.2639  0.5509  -0.8730   0.0000   0.0000   0.0000   0.3477
   1.300   0.3636   0.00570   0.00101  -0.0356  0.2620  0.5658  -0.8871   0.0000   0.0000   0.0000   0.3444
   1.400   0.3751   0.00568   0.00103  -0.0356  0.2595  0.5829  -0.9011   0.0000   0.0000   0.0000   0.3414
   1.500   0.3867   0.00569   0.00104  -0.0356  0.2566  0.5928  -0.9153   0.0000   0.0000   0.0000   0.3385
   1.600   0.3981   0.00570   0.00106  -0.0356  0.2534  0.6072  -0.9294   0.0000   0.0000   0.0000   0.3357
   1.700   0.4096   0.00569   0.00108  -0.0356  0.2496  0.6230  -0.9435   0.0000   0.0000   0.0000   0.3331
   1.800   0.4211   0.00567   0.00110  -0.0356  0.2458  0.6414  -0.9577   0.0000   0.0000   0.0000   0.3307
   1.900   0.4327   0.00566   0.00111  -0.0356  0.2429  0.6533  -0.9720   0.0000   0.0000   0.0000   0.3283
   2.000   0.4443   0.00563   0.00113  -0.0356  0.2420  0.6710  -0.9864   0.0000   0.0000   0.0000   0.3261
   2.100   0.4559   0.00561   0.00115  -0.0357  0.2416  0.6885  -1.0008   0.0000   0.0000   0.0000   0.3240
   2.200   0.4674   0.00557   0.00116  -0.0356  0.2410  0.7097  -1.0152   0.0000   0.0000   0.0000   0.3220
   2.300   0.4789   0.00554   0.00118  -0.0356  0.2403  0.7279  -1.0297   0.0000   0.0000   0.0000   0.3201
   2.400   0.4905   0.00553   0.00120  -0.0356  0.2393  0.7408  -1.0444   0.0000   0.0000   0.0000   0.3183
   2.500   0.5019   0.00551   0.00122  -0.0356  0.2381  0.7595  -1.0589   0.0000   0.0000   0.0000   0.3165
   2.600   0.5134   0.00550   0.00125  -0.0356  0.2367  0.7749  -1.0744   0.0000   0.0000   0.0000   0.3148
   2.700   0.5247   0.00548   0.00127  -0.0355  0.2353  0.7943  -1.0901   0.0000   0.0000   0.0000   0.3131
   2.800   0.5360   0.00546   0.00130  -0.0355  0.2338  0.8137  -1.1058   0.0000   0.0000   0.0000   0.3115
   2.900   0.5472   0.00545   0.00133  -0.0354  0.2324  0.8333  -1.1215   0.0000   0.0000   0.0000   0.3099
   3.000   0.5584   0.00544   0.00135  -0.0353  0.2309  0.8509  -1.1373   0.0000   0.0000   0.0000   0.3083
   3.100   0.5694   0.00543   0.00138  -0.0352  0.2290  0.8685  -1.1530   0.0000   0.0000   0.0000   0.3068
   3.200   0.5809   0.00544   0.00141  -0.0351  0.2268  0.8785  -1.1690   0.0000   0.0000   0.0000   0.3054
   3.300   0.5921   0.00545   0.00144  -0.0350  0.2246  0.8889  -1.1849   0.0000   0.0000   0.0000   0.3040
   3.400   0.6036   0.00547   0.00146  -0.0350  0.2225  0.8963  -1.2010   0.0000   0.0000   0.0000   0.3027
   3.500   0.6152   0.00549   0.00149  -0.0350  0.2208  0.9015  -1.2175   0.0000   0.0000   0.0000   0.3016
   3.600   0.6265   0.00550   0.00152  -0.0349  0.2195  0.9096  -1.2349   0.0000   0.0000   0.0000   0.3003
   3.700   0.6379   0.00550   0.00154  -0.0348  0.2194  0.9166  -1.2527   0.0000   0.0000   0.0000   0.2991
   3.800   0.6496   0.00552   0.00157  -0.0348  0.2193  0.9219  -1.2707   0.0000   0.0000   0.0000   0.2981
   3.900   0.6610   0.00552   0.00159  -0.0348  0.2191  0.9279  -1.2886   0.0000   0.0000   0.0000   0.2969
   4.000   0.6722   0.00553   0.00162  -0.0346  0.2189  0.9348  -1.3063   0.0000   0.0000   0.0000   0.2958
   4.100   0.6837   0.00554   0.00164  -0.0346  0.2186  0.9403  -1.3244   0.0000   0.0000   0.0000   0.2948
   4.200   0.6953   0.00556   0.00167  -0.0346  0.2182  0.9442  -1.3432   0.0000   0.0000   0.0000   0.2938
   4.300   0.7064   0.00558   0.00169  -0.0344  0.2177  0.9496  -1.3626   0.0000   0.0000   0.0000   0.2928
   4.400   0.7175   0.00559   0.00173  -0.0343  0.2169  0.9550  -1.3821   0.0000   0.0000   0.0000   0.2917
   4.500   0.7288   0.00562   0.00176  -0.0342  0.2159  0.9596  -1.4018   0.0000   0.0000   0.0000   0.2908
   4.600   0.7403   0.00565   0.00179  -0.0342  0.2146  0.9629  -1.4218   0.0000   0.0000   0.0000   0.2899
   4.700   0.7514   0.00568   0.00182  -0.0340  0.2128  0.9668  -1.4430   0.0000   0.0000   0.0000   0.2889
   4.800   0.7624   0.00572   0.00185  -0.0339  0.2105  0.9708  -1.4645   0.0000   0.0000   0.0000   0.2880
   4.900   0.7735   0.00577   0.00189  -0.0338  0.2080  0.9745  -1.4862   0.0000   0.0000   0.0000   0.2871
   5.000   0.7846   0.00583   0.00193  -0.0337  0.2048  0.9777  -1.5100   0.0000   0.0000   0.0000   0.2863
   5.100   0.7959   0.00588   0.00196  -0.0336  0.2011  0.9802  -1.5347   0.0000   0.0000   0.0000   0.2854
   5.200   0.8082   0.00592   0.00200  -0.0337  0.1980  0.9824  -1.5630   0.0000   0.0000   0.0000   0.2849
   5.300   0.8207   0.00595   0.00203  -0.0339  0.1973  0.9845  -1.5947   0.0000   0.0000   0.0000   0.2844
   5.400   0.8332   0.00598   0.00206  -0.0341  0.1968  0.9864  -1.6299   0.0000   0.0000   0.0000   0.2839
   5.500   0.8455   0.00601   0.00209  -0.0343  0.1961  0.9884  -1.6657   0.0000   0.0000   0.0000   0.2834
   5.600   0.8575   0.00604   0.00212  -0.0343  0.1949  0.9904  -1.7051   0.0000   0.0000   0.0000   0.2828
   5.700   0.8690   0.00608   0.00215  -0.0343  0.1935  0.9922  -1.7449   0.0000   0.0000   0.0000   0.2821
   5.800   0.8816   0.00614   0.00220  -0.0345  0.1907  0.9932  -1.7866   0.0000   0.0000   0.0000   0.2817
   5.900   0.8946   0.00623   0.00225  -0.0349  0.1855  0.9938  -1.8322   0.0000   0.0000   0.0000   0.2814
   6.000   0.9077   0.00632   0.00231  -0.0353  0.1783  0.9944  -1.8818   0.0000   0.0000   0.0000   0.2812
   6.100   0.9211   0.00637   0.00236  -0.0357  0.1759  0.9950  -1.9321   0.0000   0.0000   0.0000   0.2810
   6.200   0.9346   0.00642   0.00240  -0.0361  0.1745  0.9955  -1.9833   0.0000   0.0000   0.0000   0.2807
   6.300   0.9478   0.00648   0.00245  -0.0365  0.1719  0.9959  -2.0347   0.0000   0.0000   0.0000   0.2805
   6.400   0.9608   0.00658   0.00251  -0.0368  0.1671  0.9964  -2.0857   0.0000   0.0000   0.0000   0.2802
   6.500   0.9734   0.00671   0.00259  -0.0371  0.1588  0.9969  -2.1366   0.0000   0.0000   0.0000   0.2799
   6.600   0.9865   0.00678   0.00265  -0.0375  0.1547  0.9974  -2.1972   0.0000   0.0000   0.0000   0.2796
   6.700   0.9991   0.00689   0.00273  -0.0378  0.1489  0.9979  -2.2575   0.0000   0.0000   0.0000   0.2793
   6.800   1.0115   0.00704   0.00283  -0.0380  0.1413  0.9984  -2.3174   0.0000   0.0000   0.0000   0.2790
   6.900   1.0244   0.00712   0.00289  -0.0383  0.1366  0.9988  -2.3795   0.0000   0.0000   0.0000   0.2787
   7.000   1.0372   0.00721   0.00296  -0.0386  0.1328  0.9992  -2.4419   0.0000   0.0000   0.0000   0.2784
   7.100   1.0494   0.00738   0.00308  -0.0389  0.1256  0.9995  -2.5031   0.0000   0.0000   0.0000   0.2781
   7.200   1.0621   0.00749   0.00316  -0.0391  0.1189  0.9998  -2.5661   0.0000   0.0000   0.0000   0.2778
   7.300   1.0738   0.00759   0.00324  -0.0392  0.1150  1.0000  -2.6274   0.0000   0.0000   0.0000   0.2773
   7.400   1.0821   0.00777   0.00337  -0.0386  0.1076  1.0000  -2.6799   0.0000   0.0000   0.0000   0.2764
   7.500   1.0914   0.00788   0.00345  -0.0381  0.1013  1.0000  -2.7355   0.0000   0.0000   0.0000   0.2755
   7.600   1.1001   0.00805   0.00358  -0.0376  0.0947  1.0000  -2.7898   0.0000   0.0000   0.0000   0.2746
   7.700   1.1089   0.00821   0.00370  -0.0371  0.0865  1.0000  -2.8449   0.0000   0.0000   0.0000   0.2737
   7.800   1.1188   0.00829   0.00378  -0.0367  0.0843  1.0000  -2.9027   0.0000   0.0000   0.0000   0.2730
   7.900   1.1275   0.00848   0.00392  -0.0362  0.0779  1.0000  -2.9660   0.0000   0.0000   0.0000   0.2722
   8.000   1.1370   0.00861   0.00402  -0.0358  0.0719  1.0000  -3.0347   0.0000   0.0000   0.0000   0.2714
   8.100   1.1470   0.00872   0.00412  -0.0354  0.0691  1.0000  -3.1054   0.0000   0.0000   0.0000   0.2707
   8.200   1.1563   0.00889   0.00425  -0.0350  0.0646  1.0000  -3.1746   0.0000   0.0000   0.0000   0.2700
   8.300   1.1662   0.00902   0.00436  -0.0347  0.0592  1.0000  -3.2459   0.0000   0.0000   0.0000   0.2693
   8.400   1.1765   0.00912   0.00445  -0.0345  0.0575  1.0000  -3.3201   0.0000   0.0000   0.0000   0.2687
   8.500   1.1865   0.00925   0.00456  -0.0342  0.0545  1.0000  -3.3933   0.0000   0.0000   0.0000   0.2681
   8.600   1.1962   0.00942   0.00469  -0.0338  0.0506  1.0000  -3.4660   0.0000   0.0000   0.0000   0.2674
   8.700   1.2065   0.00953   0.00480  -0.0336  0.0470  1.0000  -3.5416   0.0000   0.0000   0.0000   0.2669
   8.800   1.2170   0.00963   0.00489  -0.0334  0.0458  1.0000  -3.6190   0.0000   0.0000   0.0000   0.2663
   8.900   1.2272   0.00976   0.00500  -0.0332  0.0438  1.0000  -3.6959   0.0000   0.0000   0.0000   0.2657
   9.000   1.2371   0.00992   0.00513  -0.0329  0.0412  1.0000  -3.7720   0.0000   0.0000   0.0000   0.2651
   9.100   1.2472   0.01006   0.00526  -0.0326  0.0381  1.0000  -3.8494   0.0000   0.0000   0.0000   0.2646
   9.200   1.2577   0.01016   0.00536  -0.0324  0.0362  1.0000  -3.9293   0.0000   0.0000   0.0000   0.2640
   9.300   1.2683   0.01026   0.00545  -0.0322  0.0354  1.0000  -4.0103   0.0000   0.0000   0.0000   0.2635
   9.400   1.2786   0.01038   0.00557  -0.0320  0.0341  1.0000  -4.0910   0.0000   0.0000   0.0000   0.2630
   9.500   1.2886   0.01054   0.00570  -0.0317  0.0323  1.0000  -4.1709   0.0000   0.0000   0.0000   0.2624
   9.600   1.2986   0.01068   0.00584  -0.0314  0.0307  1.0000  -4.2501   0.0000   0.0000   0.0000   0.2619
   9.700   1.3088   0.01082   0.00597  -0.0312  0.0284  1.0000  -4.3314   0.0000   0.0000   0.0000   0.2614
   9.800   1.3191   0.01093   0.00608  -0.0309  0.0269  1.0000  -4.4148   0.0000   0.0000   0.0000   0.2609
   9.900   1.3296   0.01104   0.00619  -0.0307  0.0264  1.0000  -4.4998   0.0000   0.0000   0.0000   0.2604
  10.000   1.3399   0.01116   0.00631  -0.0305  0.0256  1.0000  -4.5846   0.0000   0.0000   0.0000   0.2599
  10.100   1.3499   0.01130   0.00644  -0.0302  0.0245  1.0000  -4.6690   0.0000   0.0000   0.0000   0.2593
  10.200   1.3598   0.01146   0.00659  -0.0299  0.0233  1.0000  -4.7532   0.0000   0.0000   0.0000   0.2588
  10.300   1.3696   0.01162   0.00673  -0.0296  0.0221  1.0000  -4.8377   0.0000   0.0000   0.0000   0.2583
  10.400   1.3796   0.01176   0.00687  -0.0294  0.0208  1.0000  -4.9232   0.0000   0.0000   0.0000   0.2577
  10.500   1.3897   0.01190   0.00700  -0.0291  0.0195  1.0000  -5.0098   0.0000   0.0000   0.0000   0.2572
  10.600   1.3999   0.01202   0.00713  -0.0288  0.0188  1.0000  -5.0979   0.0000   0.0000   0.0000   0.2567
  10.700   1.4102   0.01213   0.00724  -0.0286  0.0187  1.0000  -5.1879   0.0000   0.0000   0.0000   0.2563
  10.800   1.4204   0.01224   0.00736  -0.0284  0.0185  1.0000  -5.2782   0.0000   0.0000   0.0000   0.2558
  10.900   1.4306   0.01237   0.00748  -0.0281  0.0183  1.0000  -5.3768   0.0000   0.0000   0.0000   0.2553
  11.000   1.4406   0.01249   0.00762  -0.0278  0.0179  1.0000  -5.4822   0.0000   0.0000   0.0000   0.2548
  11.100   1.4504   0.01264   0.00776  -0.0275  0.0174  1.0000  -5.5874   0.0000   0.0000   0.0000   0.2543
  11.200   1.4601   0.01279   0.00791  -0.0272  0.0168  1.0000  -5.6925   0.0000   0.0000   0.0000   0.2538
  11.300   1.4695   0.01296   0.00809  -0.0269  0.0162  1.0000  -5.7961   0.0000   0.0000   0.0000   0.2532
  11.400   1.4788   0.01314   0.00826  -0.0265  0.0155  1.0000  -5.9004   0.0000   0.0000   0.0000   0.2527
  11.500   1.4880   0.01332   0.00843  -0.0261  0.0147  1.0000  -6.0053   0.0000   0.0000   0.0000   0.2522
  11.600   1.4974   0.01349   0.00860  -0.0257  0.0138  1.0000  -6.1112   0.0000   0.0000   0.0000   0.2516
  11.700   1.5067   0.01366   0.00878  -0.0253  0.0129  1.0000  -6.2178   0.0000   0.0000   0.0000   0.2511
  11.800   1.5159   0.01383   0.00896  -0.0249  0.0123  1.0000  -6.3241   0.0000   0.0000   0.0000   0.2505
  11.900   1.5254   0.01398   0.00911  -0.0246  0.0121  1.0000  -6.4347   0.0000   0.0000   0.0000   0.2500
  12.000   1.5350   0.01411   0.00925  -0.0242  0.0121  1.0000  -6.5474   0.0000   0.0000   0.0000   0.2495
  12.100   1.5446   0.01425   0.00940  -0.0239  0.0121  1.0000  -6.6606   0.0000   0.0000   0.0000   0.2490
  12.200   1.5540   0.01439   0.00955  -0.0235  0.0120  1.0000  -6.7744   0.0000   0.0000   0.0000   0.2485
  12.300   1.5634   0.01454   0.00970  -0.0231  0.0120  1.0000  -6.8886   0.0000   0.0000   0.0000   0.2480
  12.400   1.5726   0.01468   0.00986  -0.0227  0.0119  1.0000  -7.0032   0.0000   0.0000   0.0000   0.2475
  12.500   1.5818   0.01484   0.01002  -0.0223  0.0118  1.0000  -7.1180   0.0000   0.0000   0.0000   0.2470
  12.600   1.5908   0.01500   0.01019  -0.0219  0.0117  1.0000  -7.2328   0.0000   0.0000   0.0000   0.2464
  12.700   1.5996   0.01516   0.01036  -0.0215  0.0116  1.0000  -7.3476   0.0000   0.0000   0.0000   0.2459
  12.800   1.6083   0.01534   0.01054  -0.0210  0.0114  1.0000  -7.4621   0.0000   0.0000   0.0000   0.2453
  12.900   1.6167   0.01552   0.01073  -0.0205  0.0111  1.0000  -7.5760   0.0000   0.0000   0.0000   0.2448
  13.000   1.6248   0.01572   0.01093  -0.0199  0.0108  1.0000  -7.6888   0.0000   0.0000   0.0000   0.2442
  13.100   1.6325   0.01593   0.01116  -0.0193  0.0105  1.0000  -7.8007   0.0000   0.0000   0.0000   0.2435
  13.200   1.6397   0.01615   0.01138  -0.0186  0.0101  1.0000  -7.9099   0.0000   0.0000   0.0000   0.2429
  13.300   1.6462   0.01638   0.01162  -0.0178  0.0098  1.0000  -8.0147   0.0000   0.0000   0.0000   0.2422
  13.400   1.6519   0.01663   0.01187  -0.0169  0.0094  1.0000  -8.1152   0.0000   0.0000   0.0000   0.2414
  13.500   1.6572   0.01688   0.01212  -0.0159  0.0090  1.0000  -8.2130   0.0000   0.0000   0.0000   0.2405
  13.600   1.6624   0.01714   0.01239  -0.0149  0.0084  1.0000  -8.3099   0.0000   0.0000   0.0000   0.2397
  13.700   1.6675   0.01741   0.01269  -0.0139  0.0079  1.0000  -8.4044   0.0000   0.0000   0.0000   0.2389
  13.800   1.6722   0.01771   0.01301  -0.0128  0.0075  1.0000  -8.4955   0.0000   0.0000   0.0000   0.2380
  13.900   1.6769   0.01802   0.01334  -0.0118  0.0072  1.0000  -8.5865   0.0000   0.0000   0.0000   0.2372
  14.000   1.6814   0.01834   0.01370  -0.0108  0.0070  1.0000  -8.6772   0.0000   0.0000   0.0000   0.2364
  14.100   1.6859   0.01868   0.01407  -0.0098  0.0069  1.0000  -8.7682   0.0000   0.0000   0.0000   0.2356
  14.300   1.6971   0.01924   0.01466  -0.0082  0.0069  1.0000  -8.9787   0.0000   0.0000   0.0000   0.2342
  14.400   1.7025   0.01953   0.01497  -0.0075  0.0069  1.0000  -9.0838   0.0000   0.0000   0.0000   0.2336
  14.500   1.7080   0.01983   0.01528  -0.0067  0.0069  1.0000  -9.1906   0.0000   0.0000   0.0000   0.2329
  14.600   1.7135   0.02014   0.01561  -0.0060  0.0069  1.0000  -9.2972   0.0000   0.0000   0.0000   0.2322
  14.700   1.7186   0.02047   0.01596  -0.0052  0.0069  1.0000  -9.4023   0.0000   0.0000   0.0000   0.2316
  14.800   1.7238   0.02081   0.01632  -0.0045  0.0069  1.0000  -9.5088   0.0000   0.0000   0.0000   0.2310
  14.900   1.7290   0.02115   0.01668  -0.0038  0.0068  1.0000  -9.6158   0.0000   0.0000   0.0000   0.2303
  15.000   1.7335   0.02153   0.01708  -0.0031  0.0068  1.0000  -9.7186   0.0000   0.0000   0.0000   0.2297
  15.100   1.7381   0.02191   0.01748  -0.0024  0.0068  1.0000  -9.8222   0.0000   0.0000   0.0000   0.2291
  15.200   1.7430   0.02230   0.01789  -0.0017  0.0068  1.0000  -9.9283   0.0000   0.0000   0.0000   0.2285
  15.300   1.7474   0.02272   0.01834  -0.0011  0.0068  1.0000  -10.0313   0.0000   0.0000   0.0000   0.2279
  15.400   1.7516   0.02317   0.01880  -0.0005  0.0068  1.0000  -10.1337   0.0000   0.0000   0.0000   0.2273
  15.500   1.7562   0.02361   0.01926   0.0001  0.0068  1.0000  -10.2390   0.0000   0.0000   0.0000   0.2267
  15.600   1.7603   0.02408   0.01976   0.0007  0.0068  1.0000  -10.3421   0.0000   0.0000   0.0000   0.2262
  15.700   1.7641   0.02460   0.02029   0.0013  0.0068  1.0000  -10.4423   0.0000   0.0000   0.0000   0.2256
  15.800   1.7681   0.02510   0.02082   0.0018  0.0068  1.0000  -10.5451   0.0000   0.0000   0.0000   0.2251
  15.900   1.7716   0.02564   0.02138   0.0024  0.0068  1.0000  -10.6448   0.0000   0.0000   0.0000   0.2245
  16.000   1.7746   0.02623   0.02199   0.0029  0.0067  1.0000  -10.7403   0.0000   0.0000   0.0000   0.2240
  16.100   1.7780   0.02680   0.02259   0.0034  0.0067  1.0000  -10.8401   0.0000   0.0000   0.0000   0.2235
  16.200   1.7811   0.02743   0.02323   0.0039  0.0067  1.0000  -10.9372   0.0000   0.0000   0.0000   0.2230
  16.300   1.7837   0.02811   0.02394   0.0043  0.0067  1.0000  -11.0305   0.0000   0.0000   0.0000   0.2225
  16.400   1.7868   0.02876   0.02462   0.0047  0.0067  1.0000  -11.1285   0.0000   0.0000   0.0000   0.2221
  16.500   1.7891   0.02951   0.02538   0.0050  0.0067  1.0000  -11.2203   0.0000   0.0000   0.0000   0.2217
  16.600   1.7913   0.03028   0.02619   0.0053  0.0066  1.0000  -11.3107   0.0000   0.0000   0.0000   0.2212
  16.700   1.7939   0.03102   0.02695   0.0056  0.0066  1.0000  -11.4053   0.0000   0.0000   0.0000   0.2208
  16.800   1.7951   0.03192   0.02788   0.0058  0.0066  1.0000  -11.4885   0.0000   0.0000   0.0000   0.2205
  16.900   1.7968   0.03278   0.02876   0.0061  0.0066  1.0000  -11.5763   0.0000   0.0000   0.0000   0.2201
  17.000   1.7983   0.03367   0.02968   0.0062  0.0065  1.0000  -11.6622   0.0000   0.0000   0.0000   0.2197
  17.100   1.7985   0.03469   0.03073   0.0064  0.0065  1.0000  -11.7373   0.0000   0.0000   0.0000   0.2194
  17.200   1.7997   0.03562   0.03169   0.0065  0.0065  1.0000  -11.8209   0.0000   0.0000   0.0000   0.2191
  17.300   1.7991   0.03678   0.03287   0.0066  0.0064  1.0000  -11.8897   0.0000   0.0000   0.0000   0.2188
  17.400   1.7994   0.03786   0.03398   0.0066  0.0064  1.0000  -11.9652   0.0000   0.0000   0.0000   0.2185
  17.500   1.7989   0.03905   0.03519   0.0066  0.0063  1.0000  -12.0344   0.0000   0.0000   0.0000   0.2182
  17.600   1.7977   0.04034   0.03651   0.0065  0.0063  1.0000  -12.0974   0.0000   0.0000   0.0000   0.2180
  17.700   1.7971   0.04157   0.03777   0.0064  0.0062  1.0000  -12.1650   0.0000   0.0000   0.0000   0.2178
  17.800   1.7943   0.04309   0.03933   0.0061  0.0062  1.0000  -12.2132   0.0000   0.0000   0.0000   0.2177
  17.900   1.7930   0.04442   0.04069   0.0060  0.0061  1.0000  -12.2744   0.0000   0.0000   0.0000   0.2175
  18.000   1.7890   0.04616   0.04246   0.0056  0.0061  1.0000  -12.3099   0.0000   0.0000   0.0000   0.2174
  18.100   1.7868   0.04764   0.04398   0.0053  0.0060  1.0000  -12.3615   0.0000   0.0000   0.0000   0.2173
  18.200   1.7815   0.04958   0.04595   0.0048  0.0060  1.0000  -12.3839   0.0000   0.0000   0.0000   0.2173
  18.400   1.7709   0.05336   0.04981   0.0038  0.0059  1.0000  -12.4286   0.0000   0.0000   0.0000   0.2173
  18.500   1.7662   0.05516   0.05165   0.0033  0.0058  1.0000  -12.4560   0.0000   0.0000   0.0000   0.2173
  18.600   1.7579   0.05755   0.05408   0.0025  0.0058  1.0000  -12.4472   0.0000   0.0000   0.0000   0.2175
  18.700   1.7521   0.05955   0.05612   0.0020  0.0057  1.0000  -12.4625   0.0000   0.0000   0.0000   0.2175
  18.800   1.7427   0.06213   0.05874   0.0010  0.0057  1.0000  -12.4415   0.0000   0.0000   0.0000   0.2178
  18.900   1.7352   0.06442   0.06107   0.0003  0.0057  1.0000  -12.4379   0.0000   0.0000   0.0000   0.2179
  19.000   1.7253   0.06708   0.06378  -0.0007  0.0057  1.0000  -12.4103   0.0000   0.0000   0.0000   0.2182
  19.100   1.7154   0.06975   0.06649  -0.0017  0.0056  1.0000  -12.3818   0.0000   0.0000   0.0000   0.2185
  19.200   1.7057   0.07240   0.06918  -0.0026  0.0056  1.0000  -12.3533   0.0000   0.0000   0.0000   0.2188
  19.300   1.6938   0.07538   0.07221  -0.0038  0.0056  1.0000  -12.3027   0.0000   0.0000   0.0000   0.2192
  19.400   1.6837   0.07803   0.07490  -0.0048  0.0056  1.0000  -12.2688   0.0000   0.0000   0.0000   0.2196
  19.500   1.6698   0.08123   0.07816  -0.0060  0.0056  1.0000  -12.1967   0.0000   0.0000   0.0000   0.2201
  19.600   1.6595   0.08395   0.08092  -0.0070  0.0056  1.0000  -12.1587   0.0000   0.0000   0.0000   0.2205
  19.700   1.6453   0.08731   0.08433  -0.0084  0.0056  1.0000  -12.0790   0.0000   0.0000   0.0000   0.2211
  19.800   1.6346   0.09015   0.08721  -0.0096  0.0056  1.0000  -12.0346   0.0000   0.0000   0.0000   0.2215
  19.900   1.6214   0.09339   0.09050  -0.0109  0.0056  1.0000  -11.9629   0.0000   0.0000   0.0000   0.2222
  20.000   1.6090   0.09654   0.09369  -0.0123  0.0056  1.0000  -11.8974   0.0000   0.0000   0.0000   0.2228
  20.100   1.6001   0.09918   0.09636  -0.0134  0.0056  1.0000  -11.8667   0.0000   0.0000   0.0000   0.2233
  20.200   1.5835   0.10303   0.10026  -0.0151  0.0056  1.0000  -11.7531   0.0000   0.0000   0.0000   0.2242
  20.300   1.5745   0.10570   0.10296  -0.0163  0.0056  1.0000  -11.7189   0.0000   0.0000   0.0000   0.2248
  20.400   1.5622   0.10890   0.10620  -0.0178  0.0056  1.0000  -11.6483   0.0000   0.0000   0.0000   0.2255
  20.500   1.5484   0.11226   0.10961  -0.0193  0.0056  1.0000  -11.5603   0.0000   0.0000   0.0000   0.2264
  20.600   1.5402   0.11480   0.11218  -0.0204  0.0056  1.0000  -11.5302   0.0000   0.0000   0.0000   0.2269
  20.700   1.5309   0.11753   0.11495  -0.0217  0.0056  1.0000  -11.4884   0.0000   0.0000   0.0000   0.2276
  20.800   1.5145   0.12148   0.11895  -0.0237  0.0056  1.0000  -11.3648   0.0000   0.0000   0.0000   0.2288
  20.900   1.5075   0.12396   0.12145  -0.0248  0.0056  1.0000  -11.3429   0.0000   0.0000   0.0000   0.2294
  21.000   1.5007   0.12641   0.12393  -0.0260  0.0056  1.0000  -11.3224   0.0000   0.0000   0.0000   0.2300
  21.100   1.4840   0.13052   0.12809  -0.0282  0.0056  1.0000  -11.1889   0.0000   0.0000   0.0000   0.2315
  21.200   1.4766   0.13312   0.13072  -0.0295  0.0056  1.0000  -11.1581   0.0000   0.0000   0.0000   0.2322
  21.300   1.4713   0.13539   0.13301  -0.0307  0.0055  1.0000  -11.1496   0.0000   0.0000   0.0000   0.2328
  21.400   1.4666   0.13757   0.13522  -0.0318  0.0055  1.0000  -11.1470   0.0000   0.0000   0.0000   0.2334
  21.500   1.4613   0.13986   0.13753  -0.0330  0.0054  1.0000  -11.1369   0.0000   0.0000   0.0000   0.2340
  21.600   1.4451   0.14405   0.14177  -0.0354  0.0055  1.0000  -10.9956   0.0000   0.0000   0.0000   0.2357
  21.700   1.4397   0.14640   0.14414  -0.0367  0.0054  1.0000  -10.9804   0.0000   0.0000   0.0000   0.2364
  21.800   1.4358   0.14850   0.14626  -0.0378  0.0053  1.0000  -10.9822   0.0000   0.0000   0.0000   0.2370
  21.900   1.4322   0.15057   0.14834  -0.0390  0.0053  1.0000  -10.9852   0.0000   0.0000   0.0000   0.2377
  22.000   1.4281   0.15270   0.15049  -0.0402  0.0052  1.0000  -10.9826   0.0000   0.0000   0.0000   0.2383
  22.100   1.4234   0.15490   0.15272  -0.0414  0.0051  1.0000  -10.9714   0.0000   0.0000   0.0000   0.2390
  22.200   1.4085   0.15890   0.15677  -0.0438  0.0052  1.0000  -10.8328   0.0000   0.0000   0.0000   0.2408
  22.300   1.4042   0.16109   0.15898  -0.0451  0.0051  1.0000  -10.8228   0.0000   0.0000   0.0000   0.2416
  22.400   1.4007   0.16315   0.16106  -0.0463  0.0050  1.0000  -10.8220   0.0000   0.0000   0.0000   0.2423
  22.500   1.3976   0.16517   0.16309  -0.0475  0.0049  1.0000  -10.8251   0.0000   0.0000   0.0000   0.2429
  22.600   1.3942   0.16728   0.16522  -0.0488  0.0048  1.0000  -10.8211   0.0000   0.0000   0.0000   0.2437
  22.700   1.3886   0.16979   0.16775  -0.0503  0.0048  1.0000  -10.7890   0.0000   0.0000   0.0000   0.2447
  22.800   1.3761   0.17368   0.17169  -0.0527  0.0048  1.0000  -10.6623   0.0000   0.0000   0.0000   0.2466
  22.900   1.3727   0.17585   0.17388  -0.0541  0.0047  1.0000  -10.6526   0.0000   0.0000   0.0000   0.2474
  23.000   1.3699   0.17792   0.17596  -0.0554  0.0045  1.0000  -10.6493   0.0000   0.0000   0.0000   0.2482
  23.100   1.3667   0.18008   0.17814  -0.0568  0.0044  1.0000  -10.6384   0.0000   0.0000   0.0000   0.2490
  23.200   1.3624   0.18247   0.18055  -0.0583  0.0043  1.0000  -10.6102   0.0000   0.0000   0.0000   0.2500
  23.300   1.3496   0.18662   0.18475  -0.0610  0.0043  1.0000  -10.4648   0.0000   0.0000   0.0000   0.2523
  23.400   1.3456   0.18901   0.18716  -0.0626  0.0042  1.0000  -10.4339   0.0000   0.0000   0.0000   0.2533
  23.500   1.3422   0.19129   0.18946  -0.0641  0.0040  1.0000  -10.4080   0.0000   0.0000   0.0000   0.2543
  23.600   1.3383   0.19372   0.19191  -0.0657  0.0039  1.0000  -10.3705   0.0000   0.0000   0.0000   0.2554
  23.700   1.3329   0.19645   0.19468  -0.0675  0.0038  1.0000  -10.3113   0.0000   0.0000   0.0000   0.2568
  23.800   1.3210   0.20066   0.19893  -0.0704  0.0038  1.0000  -10.1593   0.0000   0.0000   0.0000   0.2592
  23.900   1.3170   0.20319   0.20148  -0.0721  0.0037  1.0000  -10.1118   0.0000   0.0000   0.0000   0.2605
  24.000   1.3134   0.20566   0.20398  -0.0738  0.0036  1.0000  -10.0678   0.0000   0.0000   0.0000   0.2617
  24.100   1.3092   0.20827   0.20662  -0.0756  0.0035  1.0000  -10.0147   0.0000   0.0000   0.0000   0.2630
  24.200   1.2973   0.21269   0.21108  -0.0785  0.0035  1.0000  -9.8439   0.0000   0.0000   0.0000   0.2657
  24.300   1.2934   0.21532   0.21374  -0.0804  0.0035  1.0000  -9.7879   0.0000   0.0000   0.0000   0.2671
  24.400   1.2904   0.21776   0.21620  -0.0821  0.0034  1.0000  -9.7458   0.0000   0.0000   0.0000   0.2683
  24.500   1.2872   0.22023   0.21870  -0.0838  0.0034  1.0000  -9.7005   0.0000   0.0000   0.0000   0.2696
  24.600   1.2830   0.22300   0.22150  -0.0857  0.0034  1.0000  -9.6354   0.0000   0.0000   0.0000   0.2711
  24.700   1.2721   0.22750   0.22605  -0.0888  0.0034  1.0000  -9.4518   0.0000   0.0000   0.0000   0.2740
  24.800   1.2696   0.22993   0.22850  -0.0905  0.0033  1.0000  -9.4079   0.0000   0.0000   0.0000   0.2753
  24.900   1.2674   0.23230   0.23089  -0.0921  0.0033  1.0000  -9.3683   0.0000   0.0000   0.0000   0.2765
  25.000   1.2649   0.23475   0.23336  -0.0939  0.0033  1.0000  -9.3224   0.0000   0.0000   0.0000   0.2777
  25.100   1.2614   0.23745   0.23610  -0.0958  0.0033  1.0000  -9.2630   0.0000   0.0000   0.0000   0.2793
  25.200   1.2522   0.24160   0.24029  -0.0990  0.0033  1.0000  -9.0780   0.0000   0.0000   0.0000   0.2824
  25.300   1.2508   0.24368   0.24239  -0.1008  0.0032  1.0000  -9.0521   0.0000   0.0000   0.0000   0.2836
  25.400   1.2498   0.24568   0.24441  -0.1025  0.0032  1.0000  -9.0311   0.0000   0.0000   0.0000   0.2848
  25.500   1.2486   0.24774   0.24649  -0.1042  0.0032  1.0000  -9.0052   0.0000   0.0000   0.0000   0.2861
  25.600   1.2467   0.25001   0.24879  -0.1061  0.0032  1.0000  -8.9611   0.0000   0.0000   0.0000   0.2875
  25.700   1.2368   0.25460   0.25343  -0.1096  0.0032  1.0000  -8.7276   0.0000   0.0000   0.0000   0.2911
  25.800   1.2354   0.25685   0.25570  -0.1114  0.0032  1.0000  -8.6877   0.0000   0.0000   0.0000   0.2924
  25.900   1.2343   0.25903   0.25791  -0.1131  0.0032  1.0000  -8.6539   0.0000   0.0000   0.0000   0.2937
  26.000   1.2332   0.26126   0.26016  -0.1149  0.0031  1.0000  -8.6171   0.0000   0.0000   0.0000   0.2950
  26.100   1.2314   0.26372   0.26264  -0.1168  0.0031  1.0000  -8.5624   0.0000   0.0000   0.0000   0.2965
  26.200   1.2194   0.26961   0.26859  -0.1207  0.0031  1.0000  -8.2334   0.0000   0.0000   0.0000   0.3009
  26.300   1.2173   0.27232   0.27132  -0.1227  0.0031  1.0000  -8.1602   0.0000   0.0000   0.0000   0.3025
  26.400   1.2155   0.27500   0.27402  -0.1246  0.0031  1.0000  -8.0907   0.0000   0.0000   0.0000   0.3041
  26.500   1.2129   0.27804   0.27709  -0.1267  0.0031  1.0000  -7.9920   0.0000   0.0000   0.0000   0.3059


