xflr5 v6.61

 Calculated polar for: NACA 2210

 1 1 Reynolds number fixed          Mach number fixed         

 xtrf =   1.000 (top)        1.000 (bottom)
 Mach =   0.200     Re =     4.800 e 6     Ncrit =   9.000

  alpha     CL        CD       CDp       Cm    Top Xtr Bot Xtr   Cpmin    Chinge    XCp    
 ------- -------- --------- --------- -------- ------- ------- -------- --------- ---------
  -4.900  -0.3495   0.00684   0.00221  -0.0370  0.7540  0.0121  -3.7330   0.0000   0.0000   0.0000   0.1385
  -4.800  -0.3380   0.00682   0.00217  -0.0369  0.7437  0.0121  -3.6266   0.0000   0.0000   0.0000   0.1351
  -4.700  -0.3266   0.00674   0.00204  -0.0368  0.7380  0.0124  -3.5314   0.0000   0.0000   0.0000   0.1315
  -4.600  -0.3151   0.00666   0.00192  -0.0368  0.7312  0.0128  -3.4390   0.0000   0.0000   0.0000   0.1277
  -4.500  -0.3037   0.00661   0.00182  -0.0367  0.7217  0.0133  -3.3453   0.0000   0.0000   0.0000   0.1236
  -4.400  -0.2923   0.00655   0.00172  -0.0366  0.7121  0.0144  -3.2546   0.0000   0.0000   0.0000   0.1192
  -4.300  -0.2808   0.00648   0.00166  -0.0365  0.7067  0.0161  -3.1596   0.0000   0.0000   0.0000   0.1142
  -4.200  -0.2693   0.00644   0.00161  -0.0365  0.6982  0.0171  -3.0621   0.0000   0.0000   0.0000   0.1088
  -4.100  -0.2578   0.00643   0.00157  -0.0364  0.6872  0.0178  -2.9651   0.0000   0.0000   0.0000   0.1030
  -4.000  -0.2462   0.00641   0.00153  -0.0364  0.6805  0.0183  -2.8680   0.0000   0.0000   0.0000   0.0963
  -3.900  -0.2345   0.00639   0.00150  -0.0364  0.6734  0.0185  -2.7719   0.0000   0.0000   0.0000   0.0890
  -3.800  -0.2230   0.00639   0.00147  -0.0364  0.6632  0.0187  -2.6774   0.0000   0.0000   0.0000   0.0811
  -3.700  -0.2114   0.00639   0.00144  -0.0363  0.6533  0.0188  -2.5837   0.0000   0.0000   0.0000   0.0722
  -3.600  -0.1997   0.00637   0.00141  -0.0363  0.6475  0.0188  -2.4910   0.0000   0.0000   0.0000   0.0620
  -3.500  -0.1881   0.00636   0.00138  -0.0363  0.6382  0.0190  -2.4007   0.0000   0.0000   0.0000   0.0509
  -3.400  -0.1767   0.00634   0.00132  -0.0362  0.6263  0.0205  -2.3158   0.0000   0.0000   0.0000   0.0386
  -3.300  -0.1651   0.00630   0.00127  -0.0362  0.6206  0.0225  -2.2294   0.0000   0.0000   0.0000   0.0241
  -3.200  -0.1535   0.00627   0.00123  -0.0362  0.6124  0.0240  -2.1434   0.0000   0.0000   0.0000   0.0076
  -3.100  -0.1421   0.00627   0.00121  -0.0362  0.6010  0.0252  -2.0585   0.0000   0.0000   0.0000  -0.0113
  -3.000  -0.1305   0.00626   0.00118  -0.0362  0.5930  0.0261  -1.9736   0.0000   0.0000   0.0000  -0.0342
  -2.900  -0.1188   0.00625   0.00115  -0.0362  0.5859  0.0266  -1.9005   0.0000   0.0000   0.0000  -0.0617
  -2.800  -0.1073   0.00626   0.00112  -0.0361  0.5753  0.0268  -1.8357   0.0000   0.0000   0.0000  -0.0945
  -2.700  -0.0957   0.00626   0.00109  -0.0361  0.5650  0.0274  -1.7705   0.0000   0.0000   0.0000  -0.1357
  -2.600  -0.0841   0.00624   0.00106  -0.0361  0.5589  0.0299  -1.7069   0.0000   0.0000   0.0000  -0.1886
  -2.500  -0.0726   0.00623   0.00104  -0.0361  0.5491  0.0325  -1.6438   0.0000   0.0000   0.0000  -0.2569
  -2.400  -0.0611   0.00622   0.00102  -0.0361  0.5368  0.0346  -1.5811   0.0000   0.0000   0.0000  -0.3510
  -2.300  -0.0495   0.00621   0.00099  -0.0361  0.5315  0.0358  -1.5184   0.0000   0.0000   0.0000  -0.4923
  -2.200  -0.0379   0.00622   0.00098  -0.0361  0.5225  0.0363  -1.4568   0.0000   0.0000   0.0000  -0.7180
  -2.100  -0.0264   0.00623   0.00096  -0.0361  0.5098  0.0389  -1.3969   0.0000   0.0000   0.0000  -1.1355
  -2.000  -0.0148   0.00621   0.00093  -0.0361  0.5033  0.0421  -1.3372   0.0000   0.0000   0.0000  -2.2217
  -1.900  -0.0033   0.00621   0.00092  -0.0361  0.4934  0.0446  -1.2784   0.0000   0.0000   0.0000  -10.7800
  -1.800   0.0081   0.00623   0.00091  -0.0361  0.4790  0.0463  -1.2203   0.0000   0.0000   0.0000   4.7439
  -1.700   0.0198   0.00623   0.00089  -0.0361  0.4722  0.0471  -1.1624   0.0000   0.0000   0.0000   2.0930
  -1.600   0.0312   0.00626   0.00088  -0.0360  0.4598  0.0510  -1.1063   0.0000   0.0000   0.0000   1.4170
  -1.500   0.0427   0.00626   0.00086  -0.0360  0.4486  0.0548  -1.0505   0.0000   0.0000   0.0000   1.1015
  -1.400   0.0542   0.00625   0.00085  -0.0360  0.4409  0.0579  -0.9951   0.0000   0.0000   0.0000   0.9194
  -1.300   0.0657   0.00628   0.00085  -0.0360  0.4295  0.0604  -0.9408   0.0000   0.0000   0.0000   0.8020
  -1.200   0.0772   0.00627   0.00084  -0.0360  0.4208  0.0664  -0.8869   0.0000   0.0000   0.0000   0.7190
  -1.100   0.0889   0.00627   0.00082  -0.0361  0.4145  0.0684  -0.8339   0.0000   0.0000   0.0000   0.6573
  -1.000   0.1003   0.00629   0.00082  -0.0360  0.4044  0.0721  -0.7919   0.0000   0.0000   0.0000   0.6104
  -0.900   0.1118   0.00630   0.00081  -0.0361  0.3941  0.0786  -0.7504   0.0000   0.0000   0.0000   0.5730
  -0.800   0.1234   0.00628   0.00080  -0.0361  0.3890  0.0843  -0.7091   0.0000   0.0000   0.0000   0.5424
  -0.700   0.1349   0.00630   0.00080  -0.0361  0.3803  0.0871  -0.6685   0.0000   0.0000   0.0000   0.5172
  -0.600   0.1463   0.00632   0.00080  -0.0361  0.3686  0.0949  -0.6286   0.0000   0.0000   0.0000   0.4960
  -0.500   0.1580   0.00630   0.00079  -0.0361  0.3641  0.1007  -0.5888   0.0000   0.0000   0.0000   0.4778
  -0.400   0.1695   0.00631   0.00079  -0.0361  0.3568  0.1088  -0.5953   0.0000   0.0000   0.0000   0.4621
  -0.300   0.1808   0.00632   0.00080  -0.0361  0.3459  0.1184  -0.6071   0.0000   0.0000   0.0000   0.4486
  -0.200   0.1924   0.00631   0.00080  -0.0361  0.3390  0.1294  -0.6191   0.0000   0.0000   0.0000   0.4365
  -0.100   0.2039   0.00631   0.00080  -0.0361  0.3324  0.1370  -0.6312   0.0000   0.0000   0.0000   0.4258
   0.000   0.2152   0.00632   0.00081  -0.0361  0.3222  0.1505  -0.6430   0.0000   0.0000   0.0000   0.4163
   0.100   0.2267   0.00631   0.00080  -0.0361  0.3142  0.1643  -0.6551   0.0000   0.0000   0.0000   0.4077
   0.200   0.2381   0.00628   0.00080  -0.0361  0.3096  0.1837  -0.6672   0.0000   0.0000   0.0000   0.4000
   0.300   0.2484   0.00599   0.00078  -0.0361  0.3035  0.2956  -0.6785   0.0000   0.0000   0.0000   0.3934
   0.400   0.2594   0.00590   0.00078  -0.0361  0.2962  0.3402  -0.6903   0.0000   0.0000   0.0000   0.3871
   0.600   0.2818   0.00571   0.00078  -0.0361  0.2877  0.4229  -0.7144   0.0000   0.0000   0.0000   0.3759
   0.700   0.2932   0.00565   0.00079  -0.0361  0.2844  0.4500  -0.7267   0.0000   0.0000   0.0000   0.3709
   0.800   0.3046   0.00562   0.00080  -0.0361  0.2803  0.4743  -0.7389   0.0000   0.0000   0.0000   0.3662
   1.000   0.3272   0.00555   0.00082  -0.0361  0.2695  0.5253  -0.7639   0.0000   0.0000   0.0000   0.3579
   1.100   0.3385   0.00550   0.00083  -0.0361  0.2655  0.5532  -0.7773   0.0000   0.0000   0.0000   0.3541
   1.200   0.3501   0.00547   0.00084  -0.0361  0.2639  0.5726  -0.7910   0.0000   0.0000   0.0000   0.3506
   1.300   0.3616   0.00544   0.00085  -0.0361  0.2616  0.5913  -0.8046   0.0000   0.0000   0.0000   0.3472
   1.400   0.3730   0.00542   0.00087  -0.0361  0.2588  0.6115  -0.8182   0.0000   0.0000   0.0000   0.3441
   1.500   0.3843   0.00539   0.00089  -0.0361  0.2558  0.6372  -0.8318   0.0000   0.0000   0.0000   0.3412
   1.600   0.3957   0.00536   0.00090  -0.0361  0.2527  0.6618  -0.8454   0.0000   0.0000   0.0000   0.3384
   1.700   0.4070   0.00534   0.00092  -0.0361  0.2494  0.6819  -0.8591   0.0000   0.0000   0.0000   0.3357
   1.800   0.4185   0.00531   0.00094  -0.0361  0.2458  0.7018  -0.8728   0.0000   0.0000   0.0000   0.3332
   1.900   0.4298   0.00527   0.00095  -0.0361  0.2428  0.7273  -0.8865   0.0000   0.0000   0.0000   0.3308
   2.000   0.4411   0.00522   0.00097  -0.0360  0.2419  0.7538  -0.9004   0.0000   0.0000   0.0000   0.3285
   2.100   0.4526   0.00519   0.00099  -0.0360  0.2413  0.7742  -0.9144   0.0000   0.0000   0.0000   0.3263
   2.200   0.4639   0.00516   0.00101  -0.0360  0.2405  0.7935  -0.9283   0.0000   0.0000   0.0000   0.3242
   2.300   0.4752   0.00513   0.00103  -0.0359  0.2394  0.8141  -0.9432   0.0000   0.0000   0.0000   0.3222
   2.400   0.4865   0.00511   0.00105  -0.0359  0.2382  0.8329  -0.9584   0.0000   0.0000   0.0000   0.3203
   2.500   0.4977   0.00509   0.00108  -0.0358  0.2370  0.8525  -0.9735   0.0000   0.0000   0.0000   0.3184
   2.600   0.5087   0.00506   0.00111  -0.0356  0.2357  0.8747  -0.9885   0.0000   0.0000   0.0000   0.3165
   2.700   0.5194   0.00503   0.00113  -0.0354  0.2342  0.8955  -1.0034   0.0000   0.0000   0.0000   0.3146
   2.800   0.5299   0.00502   0.00116  -0.0352  0.2325  0.9155  -1.0182   0.0000   0.0000   0.0000   0.3126
   2.900   0.5403   0.00501   0.00119  -0.0348  0.2306  0.9329  -1.0328   0.0000   0.0000   0.0000   0.3107
   3.000   0.5508   0.00503   0.00122  -0.0346  0.2283  0.9466  -1.0477   0.0000   0.0000   0.0000   0.3089
   3.100   0.5609   0.00504   0.00125  -0.0342  0.2260  0.9587  -1.0622   0.0000   0.0000   0.0000   0.3070
   3.200   0.5720   0.00506   0.00127  -0.0341  0.2238  0.9652  -1.0788   0.0000   0.0000   0.0000   0.3055
   3.300   0.5830   0.00508   0.00130  -0.0339  0.2218  0.9705  -1.0955   0.0000   0.0000   0.0000   0.3041
   3.400   0.5943   0.00511   0.00132  -0.0338  0.2199  0.9750  -1.1125   0.0000   0.0000   0.0000   0.3028
   3.500   0.6058   0.00513   0.00134  -0.0338  0.2194  0.9785  -1.1297   0.0000   0.0000   0.0000   0.3015
   3.600   0.6178   0.00515   0.00136  -0.0339  0.2192  0.9812  -1.1475   0.0000   0.0000   0.0000   0.3005
   3.700   0.6305   0.00516   0.00138  -0.0341  0.2190  0.9837  -1.1664   0.0000   0.0000   0.0000   0.2997
   3.800   0.6432   0.00518   0.00140  -0.0344  0.2186  0.9862  -1.1865   0.0000   0.0000   0.0000   0.2989
   3.900   0.6557   0.00521   0.00143  -0.0346  0.2180  0.9884  -1.2066   0.0000   0.0000   0.0000   0.2982
   4.000   0.6679   0.00523   0.00145  -0.0347  0.2170  0.9905  -1.2264   0.0000   0.0000   0.0000   0.2973
   4.100   0.6797   0.00526   0.00147  -0.0348  0.2155  0.9924  -1.2476   0.0000   0.0000   0.0000   0.2964
   4.300   0.7062   0.00536   0.00153  -0.0356  0.2097  0.9942  -1.2967   0.0000   0.0000   0.0000   0.2954
   4.400   0.7195   0.00542   0.00158  -0.0360  0.2053  0.9950  -1.3324   0.0000   0.0000   0.0000   0.2950
   4.500   0.7328   0.00548   0.00162  -0.0364  0.2005  0.9956  -1.3732   0.0000   0.0000   0.0000   0.2946
   4.600   0.7461   0.00552   0.00165  -0.0368  0.1975  0.9962  -1.4184   0.0000   0.0000   0.0000   0.2941
   4.700   0.7594   0.00555   0.00168  -0.0372  0.1969  0.9968  -1.4672   0.0000   0.0000   0.0000   0.2937
   4.800   0.7727   0.00558   0.00171  -0.0376  0.1958  0.9973  -1.5163   0.0000   0.0000   0.0000   0.2933
   4.900   0.7859   0.00562   0.00174  -0.0379  0.1936  0.9979  -1.5656   0.0000   0.0000   0.0000   0.2928
   5.000   0.7988   0.00570   0.00178  -0.0383  0.1881  0.9984  -1.6170   0.0000   0.0000   0.0000   0.2924
   5.100   0.8116   0.00580   0.00184  -0.0386  0.1794  0.9989  -1.6753   0.0000   0.0000   0.0000   0.2919
   5.200   0.8246   0.00585   0.00187  -0.0389  0.1758  0.9993  -1.7353   0.0000   0.0000   0.0000   0.2915
   5.300   0.8377   0.00590   0.00191  -0.0393  0.1736  0.9997  -1.7961   0.0000   0.0000   0.0000   0.2911
   5.400   0.8505   0.00598   0.00197  -0.0396  0.1685  1.0000  -1.8566   0.0000   0.0000   0.0000   0.2906
   5.500   0.8604   0.00608   0.00203  -0.0393  0.1614  1.0000  -1.9106   0.0000   0.0000   0.0000   0.2896
   5.600   0.8708   0.00615   0.00207  -0.0390  0.1558  1.0000  -1.9664   0.0000   0.0000   0.0000   0.2887
   5.700   0.8813   0.00621   0.00212  -0.0388  0.1524  1.0000  -2.0230   0.0000   0.0000   0.0000   0.2878
   5.800   0.8912   0.00634   0.00220  -0.0385  0.1449  1.0000  -2.0831   0.0000   0.0000   0.0000   0.2869
   5.900   0.9014   0.00644   0.00227  -0.0382  0.1369  1.0000  -2.1515   0.0000   0.0000   0.0000   0.2860
   6.000   0.9107   0.00663   0.00240  -0.0378  0.1245  1.0000  -2.2156   0.0000   0.0000   0.0000   0.2850
   6.100   0.9207   0.00677   0.00249  -0.0375  0.1142  1.0000  -2.2834   0.0000   0.0000   0.0000   0.2841
   6.200   0.9304   0.00694   0.00260  -0.0372  0.1028  1.0000  -2.3517   0.0000   0.0000   0.0000   0.2833
   6.300   0.9408   0.00705   0.00269  -0.0370  0.0974  1.0000  -2.4236   0.0000   0.0000   0.0000   0.2825
   6.400   0.9507   0.00722   0.00280  -0.0367  0.0869  1.0000  -2.4944   0.0000   0.0000   0.0000   0.2817
   6.500   0.9612   0.00734   0.00289  -0.0365  0.0816  1.0000  -2.5681   0.0000   0.0000   0.0000   0.2809
   6.600   0.9713   0.00751   0.00301  -0.0363  0.0723  1.0000  -2.6410   0.0000   0.0000   0.0000   0.2801
   6.700   0.9819   0.00762   0.00310  -0.0361  0.0679  1.0000  -2.7169   0.0000   0.0000   0.0000   0.2794
   6.800   0.9920   0.00779   0.00322  -0.0358  0.0597  1.0000  -2.7917   0.0000   0.0000   0.0000   0.2787
   6.900   1.0028   0.00789   0.00331  -0.0357  0.0564  1.0000  -2.8699   0.0000   0.0000   0.0000   0.2781
   7.000   1.0131   0.00805   0.00342  -0.0355  0.0509  1.0000  -2.9469   0.0000   0.0000   0.0000   0.2774
   7.100   1.0238   0.00816   0.00351  -0.0353  0.0464  1.0000  -3.0267   0.0000   0.0000   0.0000   0.2767
   7.200   1.0346   0.00827   0.00361  -0.0352  0.0436  1.0000  -3.1073   0.0000   0.0000   0.0000   0.2761
   7.300   1.0450   0.00842   0.00372  -0.0350  0.0395  1.0000  -3.1874   0.0000   0.0000   0.0000   0.2755
   7.400   1.0558   0.00852   0.00381  -0.0348  0.0360  1.0000  -3.2700   0.0000   0.0000   0.0000   0.2749
   7.500   1.0666   0.00863   0.00391  -0.0347  0.0341  1.0000  -3.3536   0.0000   0.0000   0.0000   0.2743
   7.600   1.0771   0.00878   0.00403  -0.0345  0.0308  1.0000  -3.4361   0.0000   0.0000   0.0000   0.2737
   7.700   1.0877   0.00890   0.00414  -0.0343  0.0270  1.0000  -3.5204   0.0000   0.0000   0.0000   0.2731
   7.800   1.0987   0.00899   0.00423  -0.0342  0.0261  1.0000  -3.6100   0.0000   0.0000   0.0000   0.2725
   7.900   1.1095   0.00910   0.00433  -0.0341  0.0248  1.0000  -3.6983   0.0000   0.0000   0.0000   0.2720
   8.000   1.1202   0.00923   0.00444  -0.0339  0.0232  1.0000  -3.8030   0.0000   0.0000   0.0000   0.2714
   8.100   1.1308   0.00935   0.00455  -0.0338  0.0214  1.0000  -3.9088   0.0000   0.0000   0.0000   0.2709
   8.200   1.1416   0.00946   0.00466  -0.0336  0.0194  1.0000  -4.0166   0.0000   0.0000   0.0000   0.2703
   8.300   1.1526   0.00955   0.00475  -0.0335  0.0187  1.0000  -4.1271   0.0000   0.0000   0.0000   0.2698
   8.400   1.1635   0.00965   0.00484  -0.0334  0.0183  1.0000  -4.2391   0.0000   0.0000   0.0000   0.2693
   8.500   1.1744   0.00975   0.00494  -0.0332  0.0178  1.0000  -4.3520   0.0000   0.0000   0.0000   0.2688
   8.600   1.1851   0.00986   0.00504  -0.0331  0.0169  1.0000  -4.4654   0.0000   0.0000   0.0000   0.2682
   8.700   1.1957   0.00999   0.00517  -0.0329  0.0160  1.0000  -4.5791   0.0000   0.0000   0.0000   0.2677
   8.800   1.2063   0.01013   0.00529  -0.0327  0.0149  1.0000  -4.6935   0.0000   0.0000   0.0000   0.2672
   8.900   1.2169   0.01026   0.00541  -0.0326  0.0136  1.0000  -4.8090   0.0000   0.0000   0.0000   0.2666
   9.000   1.2276   0.01038   0.00554  -0.0324  0.0124  1.0000  -4.9254   0.0000   0.0000   0.0000   0.2661
   9.100   1.2384   0.01048   0.00564  -0.0322  0.0121  1.0000  -5.0454   0.0000   0.0000   0.0000   0.2656
   9.200   1.2492   0.01057   0.00574  -0.0321  0.0121  1.0000  -5.1680   0.0000   0.0000   0.0000   0.2652
   9.300   1.2601   0.01067   0.00584  -0.0320  0.0120  1.0000  -5.2917   0.0000   0.0000   0.0000   0.2647
   9.400   1.2709   0.01078   0.00595  -0.0318  0.0118  1.0000  -5.4163   0.0000   0.0000   0.0000   0.2642
   9.500   1.2816   0.01089   0.00607  -0.0316  0.0116  1.0000  -5.5444   0.0000   0.0000   0.0000   0.2637
   9.600   1.2922   0.01101   0.00619  -0.0315  0.0112  1.0000  -5.6711   0.0000   0.0000   0.0000   0.2632
   9.700   1.3027   0.01114   0.00632  -0.0313  0.0107  1.0000  -5.7979   0.0000   0.0000   0.0000   0.2627
   9.800   1.3130   0.01129   0.00646  -0.0311  0.0101  1.0000  -5.9243   0.0000   0.0000   0.0000   0.2622
   9.900   1.3232   0.01145   0.00662  -0.0308  0.0095  1.0000  -6.0501   0.0000   0.0000   0.0000   0.2617
  10.000   1.3333   0.01162   0.00679  -0.0305  0.0085  1.0000  -6.1738   0.0000   0.0000   0.0000   0.2612
  10.100   1.3433   0.01182   0.00700  -0.0302  0.0074  1.0000  -6.2897   0.0000   0.0000   0.0000   0.2606
  10.200   1.3532   0.01201   0.00721  -0.0299  0.0070  1.0000  -6.4077   0.0000   0.0000   0.0000   0.2600
  10.500   1.3843   0.01242   0.00766  -0.0292  0.0069  1.0000  -6.8077   0.0000   0.0000   0.0000   0.2586
  10.600   1.3947   0.01255   0.00780  -0.0290  0.0069  1.0000  -6.9466   0.0000   0.0000   0.0000   0.2581
  10.700   1.4051   0.01268   0.00793  -0.0288  0.0068  1.0000  -7.0869   0.0000   0.0000   0.0000   0.2576
  10.800   1.4154   0.01280   0.00807  -0.0286  0.0068  1.0000  -7.2286   0.0000   0.0000   0.0000   0.2571
  10.900   1.4257   0.01293   0.00820  -0.0284  0.0068  1.0000  -7.3717   0.0000   0.0000   0.0000   0.2567
  11.000   1.4360   0.01306   0.00834  -0.0281  0.0068  1.0000  -7.5161   0.0000   0.0000   0.0000   0.2562
  11.100   1.4463   0.01319   0.00848  -0.0279  0.0068  1.0000  -7.6618   0.0000   0.0000   0.0000   0.2557
  11.200   1.4566   0.01332   0.00862  -0.0277  0.0067  1.0000  -7.8079   0.0000   0.0000   0.0000   0.2553
  11.300   1.4668   0.01346   0.00876  -0.0274  0.0067  1.0000  -7.9559   0.0000   0.0000   0.0000   0.2548
  11.400   1.4769   0.01359   0.00890  -0.0272  0.0067  1.0000  -8.1050   0.0000   0.0000   0.0000   0.2543
  11.500   1.4870   0.01373   0.00905  -0.0269  0.0066  1.0000  -8.2551   0.0000   0.0000   0.0000   0.2538
  11.600   1.4970   0.01388   0.00920  -0.0266  0.0066  1.0000  -8.4062   0.0000   0.0000   0.0000   0.2533
  11.700   1.5070   0.01402   0.00935  -0.0263  0.0065  1.0000  -8.5586   0.0000   0.0000   0.0000   0.2529
  11.800   1.5169   0.01417   0.00951  -0.0260  0.0063  1.0000  -8.7118   0.0000   0.0000   0.0000   0.2524
  11.900   1.5266   0.01434   0.00968  -0.0257  0.0062  1.0000  -8.8652   0.0000   0.0000   0.0000   0.2519
  12.000   1.5362   0.01451   0.00985  -0.0254  0.0059  1.0000  -9.0183   0.0000   0.0000   0.0000   0.2514
  12.100   1.5455   0.01470   0.01005  -0.0250  0.0056  1.0000  -9.1704   0.0000   0.0000   0.0000   0.2508
  12.200   1.5546   0.01491   0.01026  -0.0246  0.0053  1.0000  -9.3199   0.0000   0.0000   0.0000   0.2503
  12.300   1.5634   0.01515   0.01049  -0.0242  0.0050  1.0000  -9.4659   0.0000   0.0000   0.0000   0.2497
  12.400   1.5718   0.01540   0.01075  -0.0237  0.0045  1.0000  -9.6039   0.0000   0.0000   0.0000   0.2492
  12.500   1.5786   0.01581   0.01120  -0.0229  0.0036  1.0000  -9.6744   0.0000   0.0000   0.0000   0.2484
  12.600   1.5853   0.01621   0.01166  -0.0221  0.0033  1.0000  -9.7553   0.0000   0.0000   0.0000   0.2477
  12.700   1.5921   0.01658   0.01209  -0.0214  0.0032  1.0000  -9.8561   0.0000   0.0000   0.0000   0.2470
  12.800   1.5988   0.01695   0.01252  -0.0206  0.0032  1.0000  -9.9611   0.0000   0.0000   0.0000   0.2463
  12.900   1.6050   0.01735   0.01296  -0.0198  0.0031  1.0000  -10.0666   0.0000   0.0000   0.0000   0.2455
  13.000   1.6111   0.01774   0.01341  -0.0190  0.0031  1.0000  -10.1773   0.0000   0.0000   0.0000   0.2448
  13.100   1.6183   0.01803   0.01374  -0.0184  0.0031  1.0000  -10.3143   0.0000   0.0000   0.0000   0.2441
  13.200   1.6252   0.01834   0.01408  -0.0177  0.0031  1.0000  -10.4487   0.0000   0.0000   0.0000   0.2435
  13.300   1.6318   0.01866   0.01443  -0.0169  0.0031  1.0000  -10.5814   0.0000   0.0000   0.0000   0.2428
  13.400   1.6380   0.01899   0.01479  -0.0162  0.0031  1.0000  -10.7124   0.0000   0.0000   0.0000   0.2421
  13.500   1.6438   0.01933   0.01516  -0.0153  0.0031  1.0000  -10.8402   0.0000   0.0000   0.0000   0.2414
  13.600   1.6485   0.01967   0.01553  -0.0143  0.0031  1.0000  -10.9607   0.0000   0.0000   0.0000   0.2405
  13.700   1.6522   0.02001   0.01591  -0.0131  0.0031  1.0000  -11.0738   0.0000   0.0000   0.0000   0.2396
  13.800   1.6555   0.02037   0.01631  -0.0119  0.0031  1.0000  -11.1845   0.0000   0.0000   0.0000   0.2386
  13.900   1.6586   0.02076   0.01672  -0.0107  0.0031  1.0000  -11.3003   0.0000   0.0000   0.0000   0.2377
  14.000   1.6615   0.02116   0.01716  -0.0095  0.0031  1.0000  -11.4287   0.0000   0.0000   0.0000   0.2368
  14.100   1.6641   0.02160   0.01763  -0.0084  0.0031  1.0000  -11.5552   0.0000   0.0000   0.0000   0.2359
  14.200   1.6667   0.02205   0.01812  -0.0073  0.0031  1.0000  -11.6820   0.0000   0.0000   0.0000   0.2350
  14.300   1.6688   0.02254   0.01865  -0.0062  0.0031  1.0000  -11.8036   0.0000   0.0000   0.0000   0.2342
  14.400   1.6709   0.02305   0.01919  -0.0051  0.0031  1.0000  -11.9262   0.0000   0.0000   0.0000   0.2334
  14.500   1.6726   0.02360   0.01978  -0.0041  0.0031  1.0000  -12.0453   0.0000   0.0000   0.0000   0.2325
  14.600   1.6744   0.02418   0.02040  -0.0032  0.0031  1.0000  -12.1652   0.0000   0.0000   0.0000   0.2318
  14.700   1.6754   0.02480   0.02106  -0.0022  0.0031  1.0000  -12.2773   0.0000   0.0000   0.0000   0.2310
  14.800   1.6766   0.02546   0.02175  -0.0014  0.0031  1.0000  -12.3914   0.0000   0.0000   0.0000   0.2303
  14.900   1.6773   0.02618   0.02251  -0.0006  0.0031  1.0000  -12.5001   0.0000   0.0000   0.0000   0.2296
  15.000   1.6781   0.02692   0.02330   0.0001  0.0031  1.0000  -12.6105   0.0000   0.0000   0.0000   0.2290
  15.100   1.6784   0.02774   0.02416   0.0007  0.0031  1.0000  -12.7149   0.0000   0.0000   0.0000   0.2284
  15.200   1.6784   0.02860   0.02506   0.0013  0.0030  1.0000  -12.8166   0.0000   0.0000   0.0000   0.2278
  15.300   1.6781   0.02952   0.02602   0.0019  0.0030  1.0000  -12.9134   0.0000   0.0000   0.0000   0.2272
  15.400   1.6773   0.03052   0.02706   0.0023  0.0030  1.0000  -13.0054   0.0000   0.0000   0.0000   0.2268
  15.500   1.6768   0.03156   0.02814   0.0026  0.0030  1.0000  -13.0993   0.0000   0.0000   0.0000   0.2263
  15.600   1.6754   0.03273   0.02935   0.0028  0.0030  1.0000  -13.1832   0.0000   0.0000   0.0000   0.2260
  15.700   1.6740   0.03394   0.03061   0.0029  0.0030  1.0000  -13.2667   0.0000   0.0000   0.0000   0.2257
  15.800   1.6716   0.03532   0.03204   0.0029  0.0030  1.0000  -13.3352   0.0000   0.0000   0.0000   0.2254
  15.900   1.6689   0.03678   0.03355   0.0028  0.0030  1.0000  -13.4009   0.0000   0.0000   0.0000   0.2253
  16.000   1.6660   0.03829   0.03511   0.0025  0.0030  1.0000  -13.4631   0.0000   0.0000   0.0000   0.2251
  16.100   1.6628   0.03986   0.03672   0.0023  0.0030  1.0000  -13.5213   0.0000   0.0000   0.0000   0.2250
  16.200   1.6586   0.04163   0.03854   0.0018  0.0030  1.0000  -13.5654   0.0000   0.0000   0.0000   0.2251
  16.300   1.6542   0.04350   0.04045   0.0012  0.0030  1.0000  -13.6047   0.0000   0.0000   0.0000   0.2252
  16.400   1.6497   0.04541   0.04241   0.0006  0.0030  1.0000  -13.6428   0.0000   0.0000   0.0000   0.2253
  16.500   1.6444   0.04749   0.04453  -0.0001  0.0030  1.0000  -13.6680   0.0000   0.0000   0.0000   0.2255
  16.600   1.6380   0.04977   0.04687  -0.0011  0.0030  1.0000  -13.6778   0.0000   0.0000   0.0000   0.2258
  16.700   1.6312   0.05214   0.04928  -0.0021  0.0030  1.0000  -13.6807   0.0000   0.0000   0.0000   0.2262
  16.800   1.6243   0.05451   0.05171  -0.0030  0.0030  1.0000  -13.6813   0.0000   0.0000   0.0000   0.2265
  16.900   1.6162   0.05708   0.05433  -0.0041  0.0030  1.0000  -13.6641   0.0000   0.0000   0.0000   0.2270
  17.000   1.6064   0.05987   0.05717  -0.0053  0.0030  1.0000  -13.6235   0.0000   0.0000   0.0000   0.2275
  17.100   1.5963   0.06275   0.06009  -0.0066  0.0030  1.0000  -13.5765   0.0000   0.0000   0.0000   0.2280
  17.200   1.5867   0.06554   0.06293  -0.0077  0.0030  1.0000  -13.5352   0.0000   0.0000   0.0000   0.2286
  17.300   1.5757   0.06859   0.06603  -0.0091  0.0030  1.0000  -13.4728   0.0000   0.0000   0.0000   0.2292
  17.400   1.5636   0.07187   0.06936  -0.0106  0.0030  1.0000  -13.3913   0.0000   0.0000   0.0000   0.2300
  17.500   1.5521   0.07501   0.07255  -0.0119  0.0030  1.0000  -13.3182   0.0000   0.0000   0.0000   0.2307
  17.600   1.5404   0.07820   0.07578  -0.0133  0.0030  1.0000  -13.2402   0.0000   0.0000   0.0000   0.2314
  17.700   1.5267   0.08174   0.07937  -0.0149  0.0030  1.0000  -13.1320   0.0000   0.0000   0.0000   0.2323
  17.800   1.5156   0.08473   0.08240  -0.0162  0.0030  1.0000  -13.0607   0.0000   0.0000   0.0000   0.2330
  17.900   1.5008   0.08841   0.08612  -0.0178  0.0030  1.0000  -12.9322   0.0000   0.0000   0.0000   0.2340
  18.000   1.4894   0.09153   0.08929  -0.0192  0.0030  1.0000  -12.8522   0.0000   0.0000   0.0000   0.2348
  18.100   1.4750   0.09524   0.09304  -0.0209  0.0030  1.0000  -12.7251   0.0000   0.0000   0.0000   0.2359
  18.200   1.4647   0.09827   0.09611  -0.0222  0.0030  1.0000  -12.6562   0.0000   0.0000   0.0000   0.2367
  18.300   1.4498   0.10216   0.10004  -0.0241  0.0030  1.0000  -12.5149   0.0000   0.0000   0.0000   0.2379
  18.400   1.4400   0.10517   0.10308  -0.0254  0.0030  1.0000  -12.4490   0.0000   0.0000   0.0000   0.2388
  18.500   1.4272   0.10877   0.10672  -0.0272  0.0030  1.0000  -12.3337   0.0000   0.0000   0.0000   0.2400
  18.600   1.4163   0.11204   0.11002  -0.0287  0.0030  1.0000  -12.2449   0.0000   0.0000   0.0000   0.2410
  18.700   1.4074   0.11494   0.11296  -0.0301  0.0030  1.0000  -12.1861   0.0000   0.0000   0.0000   0.2419
  18.800   1.3925   0.11885   0.11691  -0.0320  0.0030  1.0000  -12.0323   0.0000   0.0000   0.0000   0.2434
  18.900   1.3830   0.12190   0.11999  -0.0335  0.0030  1.0000  -11.9579   0.0000   0.0000   0.0000   0.2444
  19.000   1.3754   0.12463   0.12275  -0.0348  0.0030  1.0000  -11.9123   0.0000   0.0000   0.0000   0.2453
  19.100   1.3682   0.12736   0.12550  -0.0361  0.0030  1.0000  -11.8689   0.0000   0.0000   0.0000   0.2462
  19.200   1.3537   0.13146   0.12965  -0.0383  0.0030  1.0000  -11.7061   0.0000   0.0000   0.0000   0.2479
  19.300   1.3465   0.13426   0.13248  -0.0397  0.0030  1.0000  -11.6574   0.0000   0.0000   0.0000   0.2489
  19.400   1.3404   0.13686   0.13511  -0.0410  0.0030  1.0000  -11.6253   0.0000   0.0000   0.0000   0.2498
  19.500   1.3344   0.13948   0.13775  -0.0423  0.0030  1.0000  -11.5920   0.0000   0.0000   0.0000   0.2507
  19.600   1.3224   0.14330   0.14161  -0.0444  0.0030  1.0000  -11.4535   0.0000   0.0000   0.0000   0.2524
  19.700   1.3149   0.14627   0.14462  -0.0460  0.0030  1.0000  -11.3878   0.0000   0.0000   0.0000   0.2536
  19.800   1.3097   0.14881   0.14718  -0.0473  0.0030  1.0000  -11.3601   0.0000   0.0000   0.0000   0.2546
  19.900   1.3046   0.15135   0.14974  -0.0487  0.0030  1.0000  -11.3318   0.0000   0.0000   0.0000   0.2556
  20.000   1.2968   0.15446   0.15289  -0.0504  0.0030  1.0000  -11.2514   0.0000   0.0000   0.0000   0.2570
  20.100   1.2868   0.15805   0.15651  -0.0524  0.0030  1.0000  -11.1294   0.0000   0.0000   0.0000   0.2587
  20.200   1.2819   0.16058   0.15906  -0.0538  0.0030  1.0000  -11.0964   0.0000   0.0000   0.0000   0.2597
  20.300   1.2772   0.16305   0.16156  -0.0552  0.0030  1.0000  -11.0641   0.0000   0.0000   0.0000   0.2608
  20.400   1.2718   0.16567   0.16421  -0.0567  0.0030  1.0000  -11.0187   0.0000   0.0000   0.0000   0.2619
  20.500   1.2603   0.16966   0.16824  -0.0590  0.0030  1.0000  -10.8511   0.0000   0.0000   0.0000   0.2641
  20.600   1.2556   0.17227   0.17087  -0.0605  0.0030  1.0000  -10.8100   0.0000   0.0000   0.0000   0.2653
  20.700   1.2514   0.17482   0.17344  -0.0620  0.0030  1.0000  -10.7741   0.0000   0.0000   0.0000   0.2664
  20.800   1.2466   0.17751   0.17616  -0.0636  0.0030  1.0000  -10.7251   0.0000   0.0000   0.0000   0.2677
  20.900   1.2358   0.18164   0.18033  -0.0660  0.0030  1.0000  -10.5467   0.0000   0.0000   0.0000   0.2701
  21.000   1.2314   0.18433   0.18304  -0.0676  0.0030  1.0000  -10.4973   0.0000   0.0000   0.0000   0.2714
  21.100   1.2275   0.18696   0.18570  -0.0692  0.0030  1.0000  -10.4531   0.0000   0.0000   0.0000   0.2727
  21.200   1.2229   0.18978   0.18854  -0.0709  0.0030  1.0000  -10.3916   0.0000   0.0000   0.0000   0.2742
  21.300   1.2124   0.19409   0.19289  -0.0736  0.0030  1.0000  -10.1932   0.0000   0.0000   0.0000   0.2768
  21.400   1.2084   0.19686   0.19568  -0.0753  0.0030  1.0000  -10.1350   0.0000   0.0000   0.0000   0.2782
  21.500   1.2045   0.19963   0.19848  -0.0770  0.0030  1.0000  -10.0750   0.0000   0.0000   0.0000   0.2797
  21.600   1.1946   0.20402   0.20290  -0.0797  0.0030  1.0000  -9.8670   0.0000   0.0000   0.0000   0.2825
  21.700   1.1893   0.20728   0.20619  -0.0817  0.0030  1.0000  -9.7600   0.0000   0.0000   0.0000   0.2844
  21.800   1.1854   0.21019   0.20913  -0.0835  0.0030  1.0000  -9.6847   0.0000   0.0000   0.0000   0.2860
  21.900   1.1808   0.21337   0.21233  -0.0854  0.0030  1.0000  -9.5837   0.0000   0.0000   0.0000   0.2878
  22.000   1.1689   0.21869   0.21769  -0.0887  0.0030  1.0000  -9.2851   0.0000   0.0000   0.0000   0.2914
  22.100   1.1646   0.22194   0.22097  -0.0907  0.0030  1.0000  -9.1749   0.0000   0.0000   0.0000   0.2933
  22.200   1.1497   0.22852   0.22760  -0.0946  0.0030  1.0000  -8.7566   0.0000   0.0000   0.0000   0.2980
  22.300   1.1436   0.23256   0.23167  -0.0970  0.0030  1.0000  -8.5702   0.0000   0.0000   0.0000   0.3005


