xflr5 v6.61

 Calculated polar for: NACA 2312

 1 1 Reynolds number fixed          Mach number fixed         

 xtrf =   1.000 (top)        1.000 (bottom)
 Mach =   0.200     Re =     0.503 e 6     Ncrit =   9.000

  alpha     CL        CD       CDp       Cm    Top Xtr Bot Xtr   Cpmin    Chinge    XCp    
 ------- -------- --------- --------- -------- ------- ------- -------- --------- ---------
  -5.000  -0.3243   0.01146   0.00514  -0.0519  0.9549  0.0604  -2.4552   0.0000   0.0000   0.0000   0.0815
  -4.500  -0.2615   0.01069   0.00438  -0.0527  0.9425  0.0740  -2.1358   0.0000   0.0000   0.0000   0.0396
  -4.000  -0.2055   0.01001   0.00377  -0.0520  0.9249  0.0936  -1.8437   0.0000   0.0000   0.0000  -0.0126
  -3.500  -0.1508   0.00951   0.00332  -0.0510  0.9039  0.1209  -1.5757   0.0000   0.0000   0.0000  -0.0992
  -3.000  -0.0965   0.00901   0.00290  -0.0500  0.8794  0.1607  -1.3503   0.0000   0.0000   0.0000  -0.2825
  -2.000   0.0101   0.00786   0.00225  -0.0481  0.8213  0.3388  -0.9406   0.0000   0.0000   0.0000   5.0708
  -1.500   0.0599   0.00704   0.00207  -0.0466  0.7878  0.5517  -0.7799   0.0000   0.0000   0.0000   1.0358
  -1.000   0.1111   0.00669   0.00199  -0.0448  0.7491  0.6796  -0.6279   0.0000   0.0000   0.0000   0.6556
  -0.500   0.1621   0.00652   0.00199  -0.0429  0.7109  0.7801  -0.5784   0.0000   0.0000   0.0000   0.5142
   0.000   0.2132   0.00650   0.00206  -0.0407  0.6690  0.8627  -0.6243   0.0000   0.0000   0.0000   0.4396
   1.000   0.3283   0.00703   0.00232  -0.0393  0.5814  0.9637  -0.7314   0.0000   0.0000   0.0000   0.3668
   1.500   0.4092   0.00746   0.00248  -0.0441  0.5353  0.9824  -0.8048   0.0000   0.0000   0.0000   0.3545
   2.000   0.5006   0.00783   0.00264  -0.0514  0.4928  0.9955  -0.8923   0.0000   0.0000   0.0000   0.3490
   2.500   0.5679   0.00812   0.00275  -0.0538  0.4601  1.0000  -0.9726   0.0000   0.0000   0.0000   0.3407
   3.000   0.6161   0.00836   0.00288  -0.0521  0.4358  1.0000  -1.0506   0.0000   0.0000   0.0000   0.3301
   3.500   0.6644   0.00863   0.00306  -0.0503  0.4147  1.0000  -1.1501   0.0000   0.0000   0.0000   0.3208
   4.000   0.7124   0.00898   0.00332  -0.0485  0.3938  1.0000  -1.2802   0.0000   0.0000   0.0000   0.3126
   4.500   0.7617   0.00926   0.00356  -0.0468  0.3747  1.0000  -1.4417   0.0000   0.0000   0.0000   0.3055
   5.000   0.8113   0.00957   0.00384  -0.0451  0.3547  1.0000  -1.6300   0.0000   0.0000   0.0000   0.2992
   5.500   0.8608   0.00994   0.00416  -0.0434  0.3334  1.0000  -1.8439   0.0000   0.0000   0.0000   0.2936
   6.000   0.9108   0.01034   0.00454  -0.0419  0.3093  1.0000  -2.0808   0.0000   0.0000   0.0000   0.2886
   6.500   0.9610   0.01079   0.00493  -0.0404  0.2790  1.0000  -2.3535   0.0000   0.0000   0.0000   0.2841
   7.000   1.0091   0.01147   0.00544  -0.0387  0.2366  1.0000  -2.6310   0.0000   0.0000   0.0000   0.2798
   7.500   1.0547   0.01242   0.00617  -0.0367  0.1864  1.0000  -2.9112   0.0000   0.0000   0.0000   0.2757
   8.000   1.0965   0.01371   0.00720  -0.0343  0.1314  1.0000  -3.2306   0.0000   0.0000   0.0000   0.2715
   8.500   1.1371   0.01508   0.00836  -0.0317  0.0919  1.0000  -3.5640   0.0000   0.0000   0.0000   0.2674
   9.000   1.1771   0.01641   0.00962  -0.0289  0.0682  1.0000  -3.9030   0.0000   0.0000   0.0000   0.2635
   9.500   1.2148   0.01780   0.01100  -0.0259  0.0540  1.0000  -4.2425   0.0000   0.0000   0.0000   0.2595
  10.000   1.2482   0.01931   0.01260  -0.0223  0.0446  1.0000  -4.5698   0.0000   0.0000   0.0000   0.2554
  10.500   1.2734   0.02095   0.01430  -0.0175  0.0386  1.0000  -4.8747   0.0000   0.0000   0.0000   0.2505
  11.000   1.2927   0.02301   0.01654  -0.0125  0.0348  1.0000  -5.1486   0.0000   0.0000   0.0000   0.2457
  11.500   1.3144   0.02514   0.01883  -0.0086  0.0316  1.0000  -5.4427   0.0000   0.0000   0.0000   0.2417
  12.000   1.3251   0.02828   0.02211  -0.0048  0.0289  1.0000  -5.7148   0.0000   0.0000   0.0000   0.2378
  12.500   1.3171   0.03346   0.02757  -0.0012  0.0268  1.0000  -5.8822   0.0000   0.0000   0.0000   0.2342
  13.000   1.3294   0.03749   0.03182   0.0001  0.0258  1.0000  -6.1854   0.0000   0.0000   0.0000   0.2323
  13.500   1.3362   0.04240   0.03696   0.0005  0.0243  1.0000  -6.4564   0.0000   0.0000   0.0000   0.2309
  14.000   1.3389   0.04819   0.04296   0.0001  0.0228  1.0000  -6.7038   0.0000   0.0000   0.0000   0.2302
  14.500   1.3352   0.05500   0.04997  -0.0012  0.0215  1.0000  -6.9065   0.0000   0.0000   0.0000   0.2300
  15.000   1.3221   0.06327   0.05844  -0.0032  0.0206  1.0000  -7.0284   0.0000   0.0000   0.0000   0.2305
  15.500   1.2996   0.07293   0.06833  -0.0057  0.0197  1.0000  -7.0549   0.0000   0.0000   0.0000   0.2314
  16.000   1.2660   0.08421   0.07993  -0.0088  0.0189  1.0000  -6.9588   0.0000   0.0000   0.0000   0.2329
  16.500   1.2474   0.09453   0.09050  -0.0128  0.0187  1.0000  -6.9814   0.0000   0.0000   0.0000   0.2352
  17.000   1.2280   0.10529   0.10152  -0.0174  0.0185  1.0000  -6.9823   0.0000   0.0000   0.0000   0.2381
  17.500   1.2035   0.11738   0.11387  -0.0232  0.0183  1.0000  -6.9139   0.0000   0.0000   0.0000   0.2421
  18.000   1.1746   0.13093   0.12769  -0.0301  0.0182  1.0000  -6.7663   0.0000   0.0000   0.0000   0.2476
  18.500   1.1380   0.14681   0.14386  -0.0389  0.0181  1.0000  -6.4860   0.0000   0.0000   0.0000   0.2554
  19.000   1.0810   0.16868   0.16603  -0.0516  0.0182  1.0000  -5.8666   0.0000   0.0000   0.0000   0.2687
  19.500   0.9415   0.22400   0.22155  -0.0795  0.0184  1.0000  -3.2192   0.0000   0.0000   0.0000   0.3084
  20.000   0.9421   0.23877   0.23632  -0.0866  0.0172  1.0000  -2.7756   0.0000   0.0000   0.0000   0.3156
  20.500   0.9496   0.24959   0.24714  -0.0922  0.0179  1.0000  -2.4924   0.0000   0.0000   0.0000   0.3202
  21.000   0.9619   0.25962   0.25719  -0.0976  0.0202  1.0000  -2.2695   0.0000   0.0000   0.0000   0.3239
  21.500   0.9781   0.26556   0.26316  -0.1011  0.0197  1.0000  -2.4054   0.0000   0.0000   0.0000   0.3246
  22.000   0.9865   0.27620   0.27379  -0.1059  0.0188  1.0000  -2.3398   0.0000   0.0000   0.0000   0.3277
  22.500   1.0003   0.28466   0.28226  -0.1110  0.0188  1.0000  -2.3371   0.0000   0.0000   0.0000   0.3304
  23.000   1.0143   0.29295   0.29055  -0.1160  0.0187  1.0000  -2.3388   0.0000   0.0000   0.0000   0.3328
  23.500   1.0283   0.30107   0.29868  -0.1214  0.0185  1.0000  -2.3262   0.0000   0.0000   0.0000   0.3355
  24.000   1.0422   0.31031   0.30792  -0.1288  0.0154  1.0000  -2.1847   0.0000   0.0000   0.0000   0.3402
  24.500   1.0574   0.31640   0.31403  -0.1330  0.0136  1.0000  -2.2897   0.0000   0.0000   0.0000   0.3411
  25.000   1.0730   0.32117   0.31882  -0.1363  0.0128  1.0000  -2.4895   0.0000   0.0000   0.0000   0.3408
  25.500   1.0837   0.33230   0.32996  -0.1406  0.0121  1.0000  -2.3244   0.0000   0.0000   0.0000   0.3425
  26.000   1.0972   0.34126   0.33893  -0.1458  0.0120  1.0000  -2.2327   0.0000   0.0000   0.0000   0.3445
  26.500   1.1108   0.34991   0.34759  -0.1511  0.0120  1.0000  -2.1656   0.0000   0.0000   0.0000   0.3464
  27.000   1.1240   0.35851   0.35620  -0.1568  0.0119  1.0000  -2.0856   0.0000   0.0000   0.0000   0.3486
  27.500   1.1382   0.36735   0.36504  -0.1631  0.0114  1.0000  -1.9719   0.0000   0.0000   0.0000   0.3512
  28.000   1.1524   0.37609   0.37380  -0.1686  0.0100  1.0000  -1.9159   0.0000   0.0000   0.0000   0.3529
  28.500   1.1654   0.38403   0.38176  -0.1736  0.0092  1.0000  -1.9720   0.0000   0.0000   0.0000   0.3542
  29.000   1.1780   0.39155   0.38930  -0.1785  0.0085  1.0000  -2.0555   0.0000   0.0000   0.0000   0.3553
  29.500   1.1902   0.39842   0.39620  -0.1834  0.0079  1.0000  -2.1728   0.0000   0.0000   0.0000   0.3561
  30.000   1.2019   0.40488   0.40268  -0.1880  0.0075  1.0000  -2.3175   0.0000   0.0000   0.0000   0.3567


