xflr5 v6.61

 Calculated polar for: NACA 2210

 1 1 Reynolds number fixed          Mach number fixed         

 xtrf =   1.000 (top)        1.000 (bottom)
 Mach =   0.200     Re =     0.503 e 6     Ncrit =   9.000

  alpha     CL        CD       CDp       Cm    Top Xtr Bot Xtr   Cpmin    Chinge    XCp    
 ------- -------- --------- --------- -------- ------- ------- -------- --------- ---------
  -5.000  -0.3828   0.01505   0.00926  -0.0341  0.9850  0.0257  -3.4766   0.0000   0.0000   0.0000   0.1554
  -4.500  -0.3039   0.01271   0.00662  -0.0386  0.9800  0.0289  -3.0668   0.0000   0.0000   0.0000   0.1172
  -4.000  -0.2304   0.01185   0.00574  -0.0417  0.9688  0.0351  -2.5855   0.0000   0.0000   0.0000   0.0629
  -3.500  -0.1637   0.01054   0.00438  -0.0433  0.9512  0.0421  -2.1808   0.0000   0.0000   0.0000  -0.0213
  -3.000  -0.1047   0.00974   0.00351  -0.0431  0.9304  0.0519  -1.8116   0.0000   0.0000   0.0000  -0.1707
  -2.500  -0.0486   0.00921   0.00297  -0.0423  0.9050  0.0677  -1.5262   0.0000   0.0000   0.0000  -0.6360
  -2.000   0.0056   0.00873   0.00248  -0.0411  0.8720  0.0924  -1.2565   0.0000   0.0000   0.0000   7.6466
  -1.500   0.0594   0.00827   0.00212  -0.0401  0.8339  0.1507  -0.9939   0.0000   0.0000   0.0000   0.9298
  -1.000   0.1045   0.00655   0.00179  -0.0382  0.7925  0.5972  -0.7806   0.0000   0.0000   0.0000   0.6168
  -0.500   0.1501   0.00596   0.00178  -0.0349  0.7453  0.8147  -0.6000   0.0000   0.0000   0.0000   0.4824
   0.000   0.2012   0.00600   0.00187  -0.0324  0.6940  0.9304  -0.6319   0.0000   0.0000   0.0000   0.4095
   0.500   0.2726   0.00635   0.00192  -0.0347  0.6323  0.9776  -0.7013   0.0000   0.0000   0.0000   0.3755
   1.000   0.3643   0.00681   0.00197  -0.0421  0.5559  0.9965  -0.7873   0.0000   0.0000   0.0000   0.3632
   1.500   0.4251   0.00719   0.00199  -0.0432  0.4864  1.0000  -0.8570   0.0000   0.0000   0.0000   0.3488
   2.000   0.4739   0.00762   0.00208  -0.0417  0.4214  1.0000  -0.9190   0.0000   0.0000   0.0000   0.3348
   2.500   0.5228   0.00808   0.00227  -0.0402  0.3677  1.0000  -0.9875   0.0000   0.0000   0.0000   0.3233
   3.000   0.5729   0.00847   0.00249  -0.0388  0.3352  1.0000  -1.0588   0.0000   0.0000   0.0000   0.3138
   3.500   0.6232   0.00888   0.00276  -0.0374  0.3125  1.0000  -1.1368   0.0000   0.0000   0.0000   0.3058
   4.000   0.6745   0.00925   0.00307  -0.0362  0.2976  1.0000  -1.2258   0.0000   0.0000   0.0000   0.2990
   4.500   0.7265   0.00965   0.00348  -0.0350  0.2853  1.0000  -1.3551   0.0000   0.0000   0.0000   0.2932
   5.000   0.7790   0.01005   0.00385  -0.0341  0.2733  1.0000  -1.5634   0.0000   0.0000   0.0000   0.2882
   5.500   0.8320   0.01046   0.00428  -0.0332  0.2603  1.0000  -1.8195   0.0000   0.0000   0.0000   0.2839
   6.000   0.8843   0.01096   0.00471  -0.0322  0.2430  1.0000  -2.1069   0.0000   0.0000   0.0000   0.2799
   6.500   0.9389   0.01123   0.00511  -0.0316  0.2294  1.0000  -2.4611   0.0000   0.0000   0.0000   0.2766
   7.000   0.9925   0.01164   0.00555  -0.0308  0.2109  1.0000  -2.8395   0.0000   0.0000   0.0000   0.2734
   7.500   1.0455   0.01211   0.00601  -0.0300  0.1846  1.0000  -3.2356   0.0000   0.0000   0.0000   0.2704
   8.000   1.0930   0.01320   0.00682  -0.0286  0.1243  1.0000  -3.6310   0.0000   0.0000   0.0000   0.2672
   8.500   1.1335   0.01509   0.00836  -0.0263  0.0628  1.0000  -4.0464   0.0000   0.0000   0.0000   0.2636
   9.000   1.1754   0.01677   0.00999  -0.0240  0.0404  1.0000  -4.5076   0.0000   0.0000   0.0000   0.2602
   9.500   1.2160   0.01841   0.01175  -0.0215  0.0310  1.0000  -4.9742   0.0000   0.0000   0.0000   0.2568
  10.000   1.2514   0.02034   0.01387  -0.0184  0.0253  1.0000  -5.4289   0.0000   0.0000   0.0000   0.2531
  10.500   1.2851   0.02216   0.01586  -0.0152  0.0216  1.0000  -5.8930   0.0000   0.0000   0.0000   0.2494
  11.000   1.2866   0.02572   0.01969  -0.0082  0.0188  1.0000  -6.1211   0.0000   0.0000   0.0000   0.2432
  11.500   1.3037   0.02818   0.02239  -0.0039  0.0180  1.0000  -6.4931   0.0000   0.0000   0.0000   0.2390
  12.000   1.3121   0.03166   0.02614  -0.0003  0.0170  1.0000  -6.7988   0.0000   0.0000   0.0000   0.2354
  12.500   1.3150   0.03626   0.03102   0.0017  0.0160  1.0000  -7.0580   0.0000   0.0000   0.0000   0.2329
  13.000   1.3135   0.04215   0.03720   0.0018  0.0151  1.0000  -7.2733   0.0000   0.0000   0.0000   0.2319
  13.500   1.3063   0.04953   0.04485  -0.0001  0.0143  1.0000  -7.4378   0.0000   0.0000   0.0000   0.2323
  14.000   1.2910   0.05863   0.05421  -0.0035  0.0137  1.0000  -7.5181   0.0000   0.0000   0.0000   0.2339
  14.500   1.2667   0.06930   0.06515  -0.0077  0.0132  1.0000  -7.4925   0.0000   0.0000   0.0000   0.2363
  15.000   1.2358   0.08119   0.07731  -0.0126  0.0129  1.0000  -7.3735   0.0000   0.0000   0.0000   0.2395
  15.500   1.2014   0.09431   0.09071  -0.0183  0.0126  1.0000  -7.1829   0.0000   0.0000   0.0000   0.2436
  16.000   1.1657   0.10850   0.10519  -0.0251  0.0124  1.0000  -6.9413   0.0000   0.0000   0.0000   0.2491
  16.500   1.1304   0.12345   0.12040  -0.0328  0.0124  1.0000  -6.6677   0.0000   0.0000   0.0000   0.2558
  17.000   1.0970   0.13914   0.13634  -0.0412  0.0124  1.0000  -6.3591   0.0000   0.0000   0.0000   0.2638
  17.500   1.0647   0.15571   0.15313  -0.0503  0.0124  1.0000  -5.9938   0.0000   0.0000   0.0000   0.2731
  18.000   1.0288   0.17481   0.17243  -0.0608  0.0127  1.0000  -5.4580   0.0000   0.0000   0.0000   0.2848
  20.000   0.9584   0.25445   0.25210  -0.0962  0.0187  1.0000  -2.4938   0.0000   0.0000   0.0000   0.3269
  20.500   0.9726   0.26294   0.26060  -0.1014  0.0186  1.0000  -2.4544   0.0000   0.0000   0.0000   0.3300
  21.000   0.9869   0.27222   0.26988  -0.1087  0.0149  1.0000  -2.2803   0.0000   0.0000   0.0000   0.3354
  21.500   1.0037   0.27710   0.27477  -0.1122  0.0131  1.0000  -2.4690   0.0000   0.0000   0.0000   0.3357
  22.000   1.0149   0.28607   0.28374  -0.1159  0.0121  1.0000  -2.4011   0.0000   0.0000   0.0000   0.3372
  22.500   1.0291   0.29510   0.29277  -0.1209  0.0121  1.0000  -2.2877   0.0000   0.0000   0.0000   0.3396
  23.000   1.0435   0.30384   0.30153  -0.1259  0.0120  1.0000  -2.2083   0.0000   0.0000   0.0000   0.3418
  23.500   1.0581   0.31230   0.30999  -0.1311  0.0119  1.0000  -2.1433   0.0000   0.0000   0.0000   0.3441
  24.000   1.0726   0.32109   0.31878  -0.1374  0.0115  1.0000  -2.0160   0.0000   0.0000   0.0000   0.3473
  24.500   1.0882   0.33002   0.32772  -0.1430  0.0100  1.0000  -1.9254   0.0000   0.0000   0.0000   0.3497
  25.000   1.1026   0.33799   0.33571  -0.1478  0.0092  1.0000  -1.9266   0.0000   0.0000   0.0000   0.3513
  25.500   1.1168   0.34574   0.34347  -0.1527  0.0085  1.0000  -1.9481   0.0000   0.0000   0.0000   0.3527
  26.000   1.1306   0.35329   0.35104  -0.1574  0.0081  1.0000  -2.0018   0.0000   0.0000   0.0000   0.3540
  26.500   1.1441   0.36060   0.35837  -0.1621  0.0077  1.0000  -2.1201   0.0000   0.0000   0.0000   0.3551
  27.000   1.1571   0.36729   0.36509  -0.1664  0.0073  1.0000  -2.2890   0.0000   0.0000   0.0000   0.3558


