xflr5 v6.61

 Calculated polar for: SC(2)-0714 | Supercritical airfoil (coordinates from Raymer w/ one correction). These coordinates are actual model coordinates, not coordinates as designed. Ref: NASA TP-2890

 1 1 Reynolds number fixed          Mach number fixed         

 xtrf =   1.000 (top)        1.000 (bottom)
 Mach =   0.200     Re =     0.503 e 6     Ncrit =   9.000

  alpha     CL        CD       CDp       Cm    Top Xtr Bot Xtr   Cpmin    Chinge    XCp    
 ------- -------- --------- --------- -------- ------- ------- -------- --------- ---------
  -5.000  -0.1699   0.01290   0.00725  -0.1036  0.9553  0.1911  -1.5100   0.0000   0.0000   0.0000  -0.3801
  -4.500  -0.0577   0.01068   0.00628  -0.1193  0.9574  0.4907  -1.2457   0.0000   0.0000   0.0000  -1.8654
  -4.000   0.0164   0.01068   0.00656  -0.1228  0.9549  0.5847  -1.0436   0.0000   0.0000   0.0000   7.9023
  -3.500   0.0926   0.01077   0.00669  -0.1262  0.9523  0.6095  -0.8474   0.0000   0.0000   0.0000   1.6326
  -3.000   0.1768   0.01086   0.00675  -0.1311  0.9504  0.6310  -0.6742   0.0000   0.0000   0.0000   0.9994
  -2.500   0.2194   0.01100   0.00700  -0.1268  0.9355  0.6382  -0.5591   0.0000   0.0000   0.0000   0.8330
  -2.000   0.3089   0.01041   0.00641  -0.1315  0.9261  0.6497  -0.5367   0.0000   0.0000   0.0000   0.6779
  -1.500   0.3702   0.01016   0.00623  -0.1307  0.9110  0.6585  -0.6569   0.0000   0.0000   0.0000   0.6039
  -1.000   0.4296   0.01011   0.00621  -0.1297  0.8959  0.6640  -0.7878   0.0000   0.0000   0.0000   0.5516
  -0.500   0.4896   0.00999   0.00610  -0.1295  0.8743  0.6693  -0.9334   0.0000   0.0000   0.0000   0.5134
   0.000   0.5535   0.00976   0.00581  -0.1303  0.8423  0.6744  -1.1053   0.0000   0.0000   0.0000   0.4837
   0.500   0.6146   0.00986   0.00547  -0.1303  0.7381  0.6793  -1.2922   0.0000   0.0000   0.0000   0.4597
   1.000   0.6474   0.01161   0.00590  -0.1252  0.4666  0.6820  -1.4377   0.0000   0.0000   0.0000   0.4404
   1.500   0.6865   0.01326   0.00656  -0.1219  0.2548  0.6842  -1.5971   0.0000   0.0000   0.0000   0.4240
   2.000   0.7345   0.01437   0.00713  -0.1201  0.1483  0.6864  -1.7759   0.0000   0.0000   0.0000   0.4096
   2.500   0.7868   0.01515   0.00765  -0.1191  0.1031  0.6889  -1.9821   0.0000   0.0000   0.0000   0.3969
   3.000   0.8418   0.01570   0.00819  -0.1184  0.0886  0.6917  -2.2385   0.0000   0.0000   0.0000   0.3857
   3.500   0.8944   0.01651   0.00895  -0.1172  0.0739  0.6946  -2.4925   0.0000   0.0000   0.0000   0.3757
   4.000   0.9479   0.01721   0.00969  -0.1162  0.0673  0.6974  -2.7625   0.0000   0.0000   0.0000   0.3668
   4.500   1.0021   0.01781   0.01032  -0.1154  0.0624  0.6997  -3.0478   0.0000   0.0000   0.0000   0.3588
   5.000   1.0552   0.01846   0.01093  -0.1145  0.0563  0.7036  -3.3357   0.0000   0.0000   0.0000   0.3516
   5.500   1.0956   0.02052   0.01322  -0.1109  0.0493  0.7070  -3.5537   0.0000   0.0000   0.0000   0.3439
   6.000   1.1452   0.02113   0.01389  -0.1090  0.0476  0.7105  -3.8535   0.0000   0.0000   0.0000   0.3372
   6.500   1.1932   0.02190   0.01473  -0.1068  0.0449  0.7142  -4.1528   0.0000   0.0000   0.0000   0.3310
   7.000   1.2402   0.02264   0.01544  -0.1047  0.0421  0.7176  -4.4652   0.0000   0.0000   0.0000   0.3253
   7.500   1.2801   0.02436   0.01720  -0.1014  0.0387  0.7210  -4.7178   0.0000   0.0000   0.0000   0.3195
   8.000   1.3213   0.02558   0.01855  -0.0982  0.0362  0.7246  -4.9743   0.0000   0.0000   0.0000   0.3139
   8.500   1.3544   0.02714   0.02028  -0.0936  0.0342  0.7277  -5.2124   0.0000   0.0000   0.0000   0.3081
   9.000   1.3885   0.02885   0.02209  -0.0896  0.0328  0.7300  -5.4763   0.0000   0.0000   0.0000   0.3028
   9.500   1.4175   0.03102   0.02443  -0.0850  0.0316  0.7329  -5.7179   0.0000   0.0000   0.0000   0.2975
  10.000   1.4381   0.03431   0.02804  -0.0795  0.0308  0.7355  -5.9339   0.0000   0.0000   0.0000   0.2921
  10.500   1.4477   0.03869   0.03282  -0.0732  0.0303  0.7380  -6.1176   0.0000   0.0000   0.0000   0.2867
  11.000   1.4390   0.04468   0.03932  -0.0661  0.0299  0.7406  -6.2044   0.0000   0.0000   0.0000   0.2813
  11.500   1.4103   0.05230   0.04750  -0.0590  0.0296  0.7431  -6.1923   0.0000   0.0000   0.0000   0.2765
  12.000   1.3865   0.05937   0.05496  -0.0546  0.0294  0.7458  -6.2304   0.0000   0.0000   0.0000   0.2731
  12.500   1.3973   0.06288   0.05865  -0.0530  0.0290  0.7491  -6.4991   0.0000   0.0000   0.0000   0.2707
  13.000   1.3660   0.07247   0.06862  -0.0533  0.0288  0.7514  -6.4790   0.0000   0.0000   0.0000   0.2707
  13.500   1.1024   0.13747   0.13495  -0.0946  0.0317  0.7477  -4.4064   0.0000   0.0000   0.0000   0.3172
  14.000   1.1505   0.13398   0.13137  -0.0916  0.0309  0.7515  -4.9599   0.0000   0.0000   0.0000   0.3097
  15.500   0.9823   0.22383   0.22138  -0.1438  0.0328  0.7519  -2.0633   0.0000   0.0000   0.0000   0.3771
  16.000   0.9989   0.23007   0.22765  -0.1471  0.0316  0.7544  -2.1221   0.0000   0.0000   0.0000   0.3771
  16.500   1.0173   0.23563   0.23328  -0.1496  0.0308  0.7571  -2.2217   0.0000   0.0000   0.0000   0.3759
  17.000   1.0264   0.24582   0.24348  -0.1532  0.0295  0.7597  -2.1699   0.0000   0.0000   0.0000   0.3772
  17.500   1.0405   0.25458   0.25226  -0.1585  0.0294  0.7626  -2.1462   0.0000   0.0000   0.0000   0.3794
  18.000   1.0555   0.26288   0.26058  -0.1638  0.0294  0.7656  -2.1558   0.0000   0.0000   0.0000   0.3813
  18.500   1.0717   0.27054   0.26825  -0.1691  0.0293  0.7684  -2.1723   0.0000   0.0000   0.0000   0.3831
  19.000   1.0885   0.27796   0.27568  -0.1746  0.0292  0.7714  -2.1921   0.0000   0.0000   0.0000   0.3846
  19.500   1.1051   0.28517   0.28293  -0.1802  0.0292  0.7758  -2.2031   0.0000   0.0000   0.0000   0.3863
  20.000   1.1202   0.29223   0.29003  -0.1867  0.0290  0.7793  -2.1744   0.0000   0.0000   0.0000   0.3888
  20.500   1.1367   0.29922   0.29705  -0.1949  0.0241  0.7828  -2.0760   0.0000   0.0000   0.0000   0.3927
  21.000   1.1552   0.30313   0.30101  -0.1983  0.0215  0.7876  -2.2631   0.0000   0.0000   0.0000   0.3915
  21.500   1.1744   0.30648   0.30438  -0.2005  0.0205  0.7925  -2.5212   0.0000   0.0000   0.0000   0.3892
  22.000   1.1867   0.31824   0.31613  -0.2097  0.0159  0.7955  -2.3349   0.0000   0.0000   0.0000   0.3943
  22.500   1.2032   0.32493   0.32283  -0.2148  0.0136  0.7985  -2.4055   0.0000   0.0000   0.0000   0.3950
  23.000   1.2207   0.32956   0.32747  -0.2192  0.0118  0.8034  -2.5841   0.0000   0.0000   0.0000   0.3945
  23.500   1.2381   0.33317   0.33112  -0.2229  0.0109  0.8096  -2.8211   0.0000   0.0000   0.0000   0.3934
  24.000   1.2549   0.33650   0.33449  -0.2265  0.0103  0.8149  -3.0808   0.0000   0.0000   0.0000   0.3922
  24.500   1.2660   0.35385   0.35184  -0.2363  0.0070  0.8179  -2.4357   0.0000   0.0000   0.0000   0.3979
  25.000   1.2804   0.36320   0.36121  -0.2423  0.0081  0.8222  -2.3040   0.0000   0.0000   0.0000   0.3993


