xflr5 v6.61

 Calculated polar for: SC(2)-0714 | Supercritical airfoil (coordinates from Raymer w/ one correction). These coordinates are actual model coordinates, not coordinates as designed. Ref: NASA TP-2890

 1 1 Reynolds number fixed          Mach number fixed         

 xtrf =   1.000 (top)        1.000 (bottom)
 Mach =   0.770     Re =     0.330 e 6     Ncrit =   9.000

  alpha     CL        CD       CDp       Cm    Top Xtr Bot Xtr   Cpmin    Chinge    XCp    
 ------- -------- --------- --------- -------- ------- ------- -------- --------- ---------
  -4.500  -0.4117   0.03680   0.03235  -0.0947  0.9225  0.0866  -2.6277   0.0000   0.0000   0.0000   0.0050
  -4.000  -0.4198   0.03290   0.02807  -0.0847  0.9057  0.0906  -2.5790   0.0000   0.0000   0.0000   0.0349
  -3.000  -0.3200   0.02789   0.02247  -0.0708  0.8785  0.1095  -2.1391   0.0000   0.0000   0.0000   0.0161
  -2.500  -0.1987   0.02497   0.01952  -0.0768  0.8706  0.1471  -1.7726   0.0000   0.0000   0.0000  -0.1526
  -2.000  -0.0635   0.02135   0.01739  -0.0947  0.8551  0.4830  -1.4409   0.0000   0.0000   0.0000  -1.2782
  -1.000   0.1718   0.02291   0.01897  -0.0857  0.8158  0.5919  -0.8221   0.0000   0.0000   0.0000   0.7525
  -0.500   0.2733   0.02224   0.01832  -0.0776  0.7740  0.6106  -0.9985   0.0000   0.0000   0.0000   0.5335
   0.000   0.3981   0.02113   0.01719  -0.0778  0.7110  0.6335  -1.2777   0.0000   0.0000   0.0000   0.4430
   0.500   0.4495   0.02173   0.01665  -0.0645  0.4412  0.6406  -1.5097   0.0000   0.0000   0.0000   0.3897
   1.000   0.4717   0.02433   0.01834  -0.0564  0.2109  0.6526  -1.6832   0.0000   0.0000   0.0000   0.3648
   1.500   0.5147   0.02621   0.02008  -0.0461  0.1400  0.6568  -1.8949   0.0000   0.0000   0.0000   0.3338
   2.000   0.5725   0.02823   0.02221  -0.0380  0.1139  0.6624  -2.1611   0.0000   0.0000   0.0000   0.3098
   2.500   0.6519   0.03062   0.02487  -0.0333  0.0998  0.6695  -2.4840   0.0000   0.0000   0.0000   0.2941
   3.000   0.7553   0.03484   0.02987  -0.0352  0.0910  0.6784  -2.7549   0.0000   0.0000   0.0000   0.2894
   3.500   0.7764   0.04121   0.03699  -0.0310  0.0865  0.6819  -2.8083   0.0000   0.0000   0.0000   0.2821
   4.000   0.7532   0.04913   0.04546  -0.0264  0.0830  0.6838  -2.7631   0.0000   0.0000   0.0000   0.2764
   4.500   0.7202   0.05936   0.05607  -0.0286  0.0796  0.6858  -2.6597   0.0000   0.0000   0.0000   0.2804
   5.000   0.6929   0.07166   0.06857  -0.0371  0.0763  0.6880  -2.5164   0.0000   0.0000   0.0000   0.2938
   5.500   0.6815   0.08442   0.08138  -0.0474  0.0735  0.6904  -2.3745   0.0000   0.0000   0.0000   0.3095
   6.000   0.6723   0.09665   0.09360  -0.0567  0.0695  0.6931  -2.3101   0.0000   0.0000   0.0000   0.3238
   6.500   0.6847   0.10924   0.10618  -0.0682  0.0640  0.6959  -2.2521   0.0000   0.0000   0.0000   0.3388
   7.000   0.7019   0.12181   0.11873  -0.0798  0.0601  0.6987  -2.1924   0.0000   0.0000   0.0000   0.3526
   7.500   0.7244   0.13378   0.13068  -0.0902  0.0563  0.7010  -2.1483   0.0000   0.0000   0.0000   0.3632
   8.000   0.7458   0.14440   0.14131  -0.0972  0.0533  0.7027  -2.1267   0.0000   0.0000   0.0000   0.3686
   8.500   0.7684   0.15460   0.15153  -0.1029  0.0513  0.7049  -2.1191   0.0000   0.0000   0.0000   0.3716
   9.000   0.7923   0.16545   0.16239  -0.1090  0.0501  0.7073  -2.0882   0.0000   0.0000   0.0000   0.3748
   9.500   0.8208   0.17744   0.17438  -0.1171  0.0498  0.7092  -2.0250   0.0000   0.0000   0.0000   0.3794
  10.000   0.8538   0.18987   0.18684  -0.1266  0.0506  0.7110  -1.9526   0.0000   0.0000   0.0000   0.3846
  10.500   0.8845   0.20403   0.20102  -0.1385  0.0536  0.7130  -1.7864   0.0000   0.0000   0.0000   0.3925
  11.000   0.9193   0.21840   0.21541  -0.1495  0.0611  0.7150  -1.6663   0.0000   0.0000   0.0000   0.3980


