xflr5 v6.61

 Calculated polar for: NACA 2210

 1 1 Reynolds number fixed          Mach number fixed         

 xtrf =   1.000 (top)        1.000 (bottom)
 Mach =   0.770     Re =     0.330 e 6     Ncrit =   9.000

  alpha     CL        CD       CDp       Cm    Top Xtr Bot Xtr   Cpmin    Chinge    XCp    
 ------- -------- --------- --------- -------- ------- ------- -------- --------- ---------
  -1.500   0.0908   0.01440   0.00736  -0.0627  0.6022  0.0651  -1.7005   0.0000   0.0000   0.0000   0.9449
  -1.000   0.1682   0.01340   0.00581  -0.0566  0.5169  0.0835  -1.3547   0.0000   0.0000   0.0000   0.5870
  -0.500   0.2438   0.01294   0.00499  -0.0511  0.4405  0.1109  -1.0569   0.0000   0.0000   0.0000   0.4589
   0.000   0.3210   0.01260   0.00462  -0.0469  0.3890  0.1951  -1.0974   0.0000   0.0000   0.0000   0.3944
   0.500   0.3709   0.01108   0.00502  -0.0373  0.3594  0.7954  -1.1782   0.0000   0.0000   0.0000   0.3481
   1.000   0.4762   0.01188   0.00594  -0.0354  0.3364  0.9467  -1.3112   0.0000   0.0000   0.0000   0.3215
   1.500   0.6514   0.01329   0.00720  -0.0485  0.3151  0.9960  -1.5165   0.0000   0.0000   0.0000   0.3214
   2.000   0.7330   0.01424   0.00824  -0.0450  0.3034  1.0000  -1.6450   0.0000   0.0000   0.0000   0.3079
   2.500   0.7970   0.01543   0.00949  -0.0380  0.2937  1.0000  -1.7688   0.0000   0.0000   0.0000   0.2937
   3.000   0.8578   0.01706   0.01134  -0.0305  0.2832  1.0000  -1.8892   0.0000   0.0000   0.0000   0.2812
   3.500   0.9132   0.01914   0.01373  -0.0227  0.2729  1.0000  -2.0124   0.0000   0.0000   0.0000   0.2700
   4.000   0.9543   0.02189   0.01680  -0.0142  0.2622  1.0000  -2.1269   0.0000   0.0000   0.0000   0.2595
   4.500   0.9643   0.02573   0.02104  -0.0049  0.2500  1.0000  -2.1931   0.0000   0.0000   0.0000   0.2492
   5.000   0.9606   0.03098   0.02658   0.0013  0.2393  1.0000  -2.2435   0.0000   0.0000   0.0000   0.2422
   5.500   0.9325   0.03943   0.03529   0.0004  0.2239  1.0000  -2.2268   0.0000   0.0000   0.0000   0.2425
   6.000   0.8896   0.05109   0.04709  -0.0064  0.2066  1.0000  -2.1394   0.0000   0.0000   0.0000   0.2496
   6.500   0.8770   0.06050   0.05655  -0.0100  0.1901  1.0000  -2.1498   0.0000   0.0000   0.0000   0.2534
   7.000   0.8790   0.06859   0.06470  -0.0121  0.1725  1.0000  -2.2343   0.0000   0.0000   0.0000   0.2551
   7.500   0.8805   0.07700   0.07317  -0.0146  0.1534  1.0000  -2.3281   0.0000   0.0000   0.0000   0.2574
   8.000   0.8785   0.08603   0.08227  -0.0179  0.1334  1.0000  -2.3927   0.0000   0.0000   0.0000   0.2607
   8.500   0.8769   0.09552   0.09180  -0.0217  0.1155  1.0000  -2.4514   0.0000   0.0000   0.0000   0.2645
   9.000   0.8766   0.10544   0.10175  -0.0260  0.0998  1.0000  -2.5000   0.0000   0.0000   0.0000   0.2689
   9.500   0.8810   0.11528   0.11160  -0.0301  0.0870  1.0000  -2.5415   0.0000   0.0000   0.0000   0.2729
  10.000   0.8763   0.12717   0.12351  -0.0368  0.0754  1.0000  -2.4773   0.0000   0.0000   0.0000   0.2804
  10.500   0.8787   0.13888   0.13521  -0.0430  0.0685  1.0000  -2.4460   0.0000   0.0000   0.0000   0.2870
  11.000   0.8900   0.14982   0.14615  -0.0486  0.0606  1.0000  -2.4535   0.0000   0.0000   0.0000   0.2921
  11.500   0.8978   0.16231   0.15864  -0.0557  0.0542  1.0000  -2.3433   0.0000   0.0000   0.0000   0.2993
  12.000   0.9134   0.17423   0.17056  -0.0621  0.0498  1.0000  -2.3218   0.0000   0.0000   0.0000   0.3048
  12.500   0.9348   0.18546   0.18179  -0.0675  0.0472  1.0000  -2.3912   0.0000   0.0000   0.0000   0.3084
  13.000   0.9498   0.19950   0.19582  -0.0760  0.0428  1.0000  -2.2706   0.0000   0.0000   0.0000   0.3159
  13.500   0.9734   0.21193   0.20825  -0.0826  0.0386  1.0000  -2.2631   0.0000   0.0000   0.0000   0.3202
  14.000   1.0000   0.22413   0.22047  -0.0888  0.0368  1.0000  -2.2743   0.0000   0.0000   0.0000   0.3234
  14.500   1.0255   0.23774   0.23407  -0.0966  0.0357  1.0000  -2.1810   0.0000   0.0000   0.0000   0.3282
  15.000   1.0532   0.25161   0.24794  -0.1045  0.0353  1.0000  -2.1213   0.0000   0.0000   0.0000   0.3327
  15.500   1.0829   0.26539   0.26172  -0.1119  0.0357  1.0000  -2.1669   0.0000   0.0000   0.0000   0.3361
  16.000   1.1115   0.28060   0.27692  -0.1207  0.0328  1.0000  -2.1315   0.0000   0.0000   0.0000   0.3407
  16.500   1.1423   0.29526   0.29159  -0.1285  0.0298  1.0000  -2.1484   0.0000   0.0000   0.0000   0.3438
  17.000   1.1732   0.31076   0.30708  -0.1363  0.0295  1.0000  -2.1212   0.0000   0.0000   0.0000   0.3468
  17.500   1.2039   0.32728   0.32361  -0.1445  0.0308  1.0000  -2.0549   0.0000   0.0000   0.0000   0.3499
  18.000   1.2355   0.34437   0.34071  -0.1523  0.0385  1.0000  -1.9914   0.0000   0.0000   0.0000   0.3523
  18.500   1.2667   0.36210   0.35845  -0.1607  0.0394  1.0000  -1.9460   0.0000   0.0000   0.0000   0.3550
  19.000   1.2984   0.37999   0.37637  -0.1688  0.0390  1.0000  -1.9385   0.0000   0.0000   0.0000   0.3573
  19.500   1.3301   0.39856   0.39495  -0.1769  0.0384  1.0000  -1.9447   0.0000   0.0000   0.0000   0.3593
  20.000   1.3617   0.41783   0.41423  -0.1847  0.0376  1.0000  -1.9974   0.0000   0.0000   0.0000   0.3610
  20.500   1.3929   0.43832   0.43473  -0.1919  0.0369  1.0000  -2.1121   0.0000   0.0000   0.0000   0.3621
  21.000   1.4236   0.46005   0.45646  -0.2025  0.0344  1.0000  -2.0930   0.0000   0.0000   0.0000   0.3656
  21.500   1.4549   0.48211   0.47853  -0.2114  0.0300  1.0000  -2.1238   0.0000   0.0000   0.0000   0.3676
  22.000   1.4855   0.50478   0.50121  -0.2195  0.0282  1.0000  -2.1728   0.0000   0.0000   0.0000   0.3690
  22.500   1.5149   0.52891   0.52537  -0.2269  0.0273  1.0000  -2.2295   0.0000   0.0000   0.0000   0.3699
  23.000   1.5430   0.55562   0.55208  -0.2340  0.0269  1.0000  -2.2626   0.0000   0.0000   0.0000   0.3706
  23.500   1.5724   0.58184   0.57832  -0.2440  0.0267  1.0000  -2.2258   0.0000   0.0000   0.0000   0.3730
  24.000   1.6021   0.60929   0.60578  -0.2545  0.0261  1.0000  -2.1738   0.0000   0.0000   0.0000   0.3755
  24.500   1.6311   0.63849   0.63501  -0.2642  0.0245  1.0000  -2.1425   0.0000   0.0000   0.0000   0.3774
  25.000   1.6584   0.66887   0.66541  -0.2731  0.0233  1.0000  -2.1461   0.0000   0.0000   0.0000   0.3789
  25.500   1.6847   0.70061   0.69717  -0.2818  0.0225  1.0000  -2.1555   0.0000   0.0000   0.0000   0.3802
  26.000   1.7099   0.73389   0.73049  -0.2905  0.0218  1.0000  -2.1674   0.0000   0.0000   0.0000   0.3815
  26.500   1.7340   0.76877   0.76539  -0.2990  0.0212  1.0000  -2.1811   0.0000   0.0000   0.0000   0.3827
  27.000   1.7567   0.80541   0.80206  -0.3073  0.0207  1.0000  -2.1965   0.0000   0.0000   0.0000   0.3838
  27.500   1.7777   0.84398   0.84066  -0.3154  0.0202  1.0000  -2.2143   0.0000   0.0000   0.0000   0.3849
  28.000   1.7964   0.88464   0.88134  -0.3230  0.0198  1.0000  -2.2535   0.0000   0.0000   0.0000   0.3858
  28.500   1.8117   0.92772   0.92446  -0.3297  0.0194  1.0000  -2.3407   0.0000   0.0000   0.0000   0.3866


