xflr5 v6.61

 Calculated polar for: NACA 65(1)-212

 1 1 Reynolds number fixed          Mach number fixed         

 xtrf =   1.000 (top)        1.000 (bottom)
 Mach =   0.700     Re =     0.905 e 6     Ncrit =   9.000

  alpha     CL        CD       CDp       Cm    Top Xtr Bot Xtr   Cpmin    Chinge    XCp    
 ------- -------- --------- --------- -------- ------- ------- -------- --------- ---------
  -2.000  -0.0552   0.00966   0.00372  -0.0579  0.6914  0.0260  -1.5010   0.0000   0.0000   0.0000  -0.8158
  -1.500   0.0097   0.00838   0.00282  -0.0558  0.6835  0.1908  -1.1784   0.0000   0.0000   0.0000   6.0575
  -1.000   0.0743   0.00662   0.00228  -0.0548  0.6749  0.5969  -0.8101   0.0000   0.0000   0.0000   0.9915
  -0.500   0.1583   0.00665   0.00233  -0.0550  0.6655  0.6265  -0.6477   0.0000   0.0000   0.0000   0.5981
   0.000   0.2421   0.00698   0.00267  -0.0553  0.6505  0.6511  -0.6889   0.0000   0.0000   0.0000   0.4777
   0.500   0.3259   0.00693   0.00277  -0.0556  0.6456  0.6743  -0.7341   0.0000   0.0000   0.0000   0.4192
   1.000   0.4081   0.00681   0.00252  -0.0549  0.6108  0.6833  -0.7838   0.0000   0.0000   0.0000   0.3827
   1.500   0.4923   0.00691   0.00266  -0.0548  0.5924  0.6911  -1.0208   0.0000   0.0000   0.0000   0.3590
   2.000   0.5710   0.00710   0.00276  -0.0531  0.5414  0.6971  -1.5060   0.0000   0.0000   0.0000   0.3402
   2.500   0.5404   0.00954   0.00416  -0.0342  0.2229  0.7067  -1.6671   0.0000   0.0000   0.0000   0.3099


