xflr5 v6.61

 Calculated polar for: NACA 65(1)-212

 1 1 Reynolds number fixed          Mach number fixed         

 xtrf =   1.000 (top)        1.000 (bottom)
 Mach =   0.770     Re =     0.330 e 6     Ncrit =   9.000

  alpha     CL        CD       CDp       Cm    Top Xtr Bot Xtr   Cpmin    Chinge    XCp    
 ------- -------- --------- --------- -------- ------- ------- -------- --------- ---------
  -1.000   0.0101   0.01401   0.00919  -0.0503  0.7142  0.6631  -1.0626   0.0000   0.0000   0.0000   5.2960
  -0.500   0.0983   0.01521   0.01027  -0.0465  0.7044  0.6996  -0.6712   0.0000   0.0000   0.0000   0.7261
   0.000   0.1553   0.01549   0.01058  -0.0415  0.6944  0.7118  -0.6939   0.0000   0.0000   0.0000   0.5166
   0.500   0.2019   0.01614   0.01130  -0.0348  0.6818  0.7220  -0.7082   0.0000   0.0000   0.0000   0.4207
   1.000   0.2606   0.01659   0.01181  -0.0297  0.6691  0.7347  -0.7375   0.0000   0.0000   0.0000   0.3617
   1.500   0.3520   0.01659   0.01180  -0.0295  0.6590  0.7444  -0.7973   0.0000   0.0000   0.0000   0.3310
   2.000   0.4113   0.01721   0.01251  -0.0245  0.6452  0.7538  -0.9032   0.0000   0.0000   0.0000   0.3062
   2.500   0.4216   0.01768   0.01320  -0.0107  0.6201  0.7667  -1.1805   0.0000   0.0000   0.0000   0.2711
   3.000   0.5935   0.01300   0.00830  -0.0090  0.4606  0.7789  -2.0281   0.0000   0.0000   0.0000   0.2607
   3.500   0.5048   0.01600   0.01054   0.0161  0.2628  0.7956  -2.0239   0.0000   0.0000   0.0000   0.2124
   4.000   0.4422   0.02002   0.01402   0.0324  0.0778  0.8127  -2.0566   0.0000   0.0000   0.0000   0.1696
   4.500   0.4449   0.02282   0.01703   0.0429  0.0540  0.8315  -2.2398   0.0000   0.0000   0.0000   0.1455
   5.000   0.4554   0.02586   0.02029   0.0519  0.0487  0.8493  -2.4111   0.0000   0.0000   0.0000   0.1271
   5.500   0.4884   0.02828   0.02318   0.0617  0.0481  0.8749  -2.6245   0.0000   0.0000   0.0000   0.1142


