xflr5 v6.61

 Calculated polar for: NACA 2312

 1 1 Reynolds number fixed          Mach number fixed         

 xtrf =   1.000 (top)        1.000 (bottom)
 Mach =   0.700     Re =     0.704 e 6     Ncrit =   9.000

  alpha     CL        CD       CDp       Cm    Top Xtr Bot Xtr   Cpmin    Chinge    XCp    
 ------- -------- --------- --------- -------- ------- ------- -------- --------- ---------
  -3.000  -0.1554   0.01117   0.00527  -0.0739  0.7050  0.0612  -2.3327   0.0000   0.0000   0.0000  -0.2396
  -2.500  -0.0779   0.01049   0.00427  -0.0696  0.6569  0.0782  -1.9142   0.0000   0.0000   0.0000  -0.6646
  -2.000   0.0004   0.01008   0.00364  -0.0661  0.6070  0.1013  -1.5457   0.0000   0.0000   0.0000  170.9195
  -1.500   0.0775   0.00984   0.00325  -0.0629  0.5568  0.1371  -1.2481   0.0000   0.0000   0.0000   1.0713
  -1.000   0.1539   0.00965   0.00301  -0.0602  0.5123  0.1908  -0.9835   0.0000   0.0000   0.0000   0.6427
  -0.500   0.2294   0.00940   0.00288  -0.0577  0.4744  0.2774  -0.8710   0.0000   0.0000   0.0000   0.5008
   0.000   0.2981   0.00867   0.00287  -0.0545  0.4467  0.5358  -0.9418   0.0000   0.0000   0.0000   0.4311
   0.500   0.3711   0.00855   0.00307  -0.0513  0.4222  0.6696  -1.0201   0.0000   0.0000   0.0000   0.3857
   1.000   0.4465   0.00851   0.00335  -0.0482  0.4051  0.7754  -1.1070   0.0000   0.0000   0.0000   0.3546
   1.500   0.5193   0.00868   0.00376  -0.0441  0.3886  0.8667  -1.1980   0.0000   0.0000   0.0000   0.3311
   2.000   0.5974   0.00906   0.00425  -0.0407  0.3724  0.9381  -1.3020   0.0000   0.0000   0.0000   0.3137
   2.500   0.7052   0.00966   0.00489  -0.0430  0.3558  0.9783  -1.4443   0.0000   0.0000   0.0000   0.3062
   3.000   0.8291   0.01039   0.00563  -0.0484  0.3363  0.9935  -1.6257   0.0000   0.0000   0.0000   0.3031
   4.000   0.9845   0.01145   0.00679  -0.0403  0.2955  1.0000  -2.0129   0.0000   0.0000   0.0000   0.2847
   4.500   1.0416   0.01203   0.00744  -0.0318  0.2695  1.0000  -2.2656   0.0000   0.0000   0.0000   0.2736
   5.000   1.0978   0.01285   0.00833  -0.0228  0.2349  1.0000  -2.5721   0.0000   0.0000   0.0000   0.2632
   5.500   1.1459   0.01434   0.00987  -0.0133  0.1842  1.0000  -2.9271   0.0000   0.0000   0.0000   0.2533
   6.000   1.1771   0.01716   0.01279  -0.0040  0.1248  1.0000  -3.2578   0.0000   0.0000   0.0000   0.2443
   6.500   1.1940   0.02151   0.01741   0.0039  0.0922  1.0000  -3.5396   0.0000   0.0000   0.0000   0.2368
   7.000   1.1936   0.02796   0.02420   0.0086  0.0799  1.0000  -3.7468   0.0000   0.0000   0.0000   0.2319
   7.500   1.1774   0.03622   0.03277   0.0102  0.0740  1.0000  -3.8690   0.0000   0.0000   0.0000   0.2296
   8.000   1.1499   0.04546   0.04229   0.0100  0.0688  1.0000  -3.9243   0.0000   0.0000   0.0000   0.2287
   8.500   1.1134   0.05561   0.05269   0.0080  0.0642  1.0000  -3.9198   0.0000   0.0000   0.0000   0.2296
   9.000   1.0737   0.06637   0.06359   0.0044  0.0603  1.0000  -3.8808   0.0000   0.0000   0.0000   0.2320
   9.500   1.0317   0.07796   0.07532  -0.0007  0.0568  1.0000  -3.7738   0.0000   0.0000   0.0000   0.2362
  10.000   0.9910   0.09025   0.08772  -0.0071  0.0531  1.0000  -3.6497   0.0000   0.0000   0.0000   0.2421
  10.500   0.9593   0.10252   0.10004  -0.0137  0.0490  1.0000  -3.5851   0.0000   0.0000   0.0000   0.2488
  11.000   0.9295   0.11530   0.11284  -0.0210  0.0452  1.0000  -3.4537   0.0000   0.0000   0.0000   0.2568
  11.500   0.9039   0.12870   0.12627  -0.0289  0.0414  1.0000  -3.2435   0.0000   0.0000   0.0000   0.2660
  12.000   0.8947   0.14087   0.13844  -0.0358  0.0381  1.0000  -3.1188   0.0000   0.0000   0.0000   0.2736
  12.500   0.8899   0.15297   0.15052  -0.0427  0.0358  1.0000  -2.9779   0.0000   0.0000   0.0000   0.2812
  13.000   0.8859   0.16627   0.16382  -0.0504  0.0333  1.0000  -2.7649   0.0000   0.0000   0.0000   0.2899
  13.500   0.8941   0.17812   0.17567  -0.0570  0.0296  1.0000  -2.7285   0.0000   0.0000   0.0000   0.2963
  14.000   0.9093   0.18889   0.18643  -0.0628  0.0276  1.0000  -2.7694   0.0000   0.0000   0.0000   0.3010
  14.500   0.9214   0.20127   0.19880  -0.0697  0.0259  1.0000  -2.6625   0.0000   0.0000   0.0000   0.3071
  15.000   0.9356   0.21416   0.21169  -0.0769  0.0240  1.0000  -2.5020   0.0000   0.0000   0.0000   0.3132
  15.500   0.9540   0.22645   0.22398  -0.0837  0.0224  1.0000  -2.3861   0.0000   0.0000   0.0000   0.3181
  16.000   0.9758   0.23818   0.23570  -0.0905  0.0215  1.0000  -2.2938   0.0000   0.0000   0.0000   0.3225
  16.500   0.9993   0.24989   0.24741  -0.0974  0.0212  1.0000  -2.2379   0.0000   0.0000   0.0000   0.3265
  17.000   1.0261   0.26008   0.25762  -0.1033  0.0196  1.0000  -2.3819   0.0000   0.0000   0.0000   0.3288
  17.500   1.0508   0.27162   0.26915  -0.1098  0.0186  1.0000  -2.4436   0.0000   0.0000   0.0000   0.3318
  18.000   1.0742   0.28548   0.28302  -0.1177  0.0174  1.0000  -2.3446   0.0000   0.0000   0.0000   0.3362
  18.500   1.0991   0.29883   0.29637  -0.1249  0.0161  1.0000  -2.2773   0.0000   0.0000   0.0000   0.3395
  19.000   1.1247   0.31219   0.30973  -0.1320  0.0153  1.0000  -2.2174   0.0000   0.0000   0.0000   0.3423
  19.500   1.1504   0.32593   0.32347  -0.1391  0.0152  1.0000  -2.1521   0.0000   0.0000   0.0000   0.3450
  20.000   1.1762   0.34008   0.33762  -0.1463  0.0161  1.0000  -2.0842   0.0000   0.0000   0.0000   0.3475


