xflr5 v6.61

 Calculated polar for: SC(2)-0714 | Supercritical airfoil (coordinates from Raymer w/ one correction). These coordinates are actual model coordinates, not coordinates as designed. Ref: NASA TP-2890

 1 1 Reynolds number fixed          Mach number fixed         

 xtrf =   1.000 (top)        1.000 (bottom)
 Mach =   0.770     Re =     1.425 e 6     Ncrit =   9.000

  alpha     CL        CD       CDp       Cm    Top Xtr Bot Xtr   Cpmin    Chinge    XCp    
 ------- -------- --------- --------- -------- ------- ------- -------- --------- ---------
  -4.800  -0.1962   0.01915   0.01551  -0.1505  0.9034  0.0544  -2.7563   0.0000   0.0000   0.0000  -0.5492
  -4.700  -0.1858   0.01869   0.01499  -0.1492  0.9017  0.0551  -2.6973   0.0000   0.0000   0.0000  -0.5859
  -4.600  -0.1757   0.01830   0.01455  -0.1478  0.8996  0.0559  -2.6372   0.0000   0.0000   0.0000  -0.6253
  -4.500  -0.1717   0.01803   0.01426  -0.1453  0.8977  0.0566  -2.5894   0.0000   0.0000   0.0000  -0.6298
  -4.400  -0.1650   0.01773   0.01394  -0.1433  0.8954  0.0574  -2.5347   0.0000   0.0000   0.0000  -0.6520
  -4.300  -0.1567   0.01742   0.01360  -0.1415  0.8930  0.0583  -2.4759   0.0000   0.0000   0.0000  -0.6875
  -4.200  -0.1468   0.01711   0.01326  -0.1401  0.8907  0.0593  -2.4131   0.0000   0.0000   0.0000  -0.7404
  -4.100  -0.1355   0.01678   0.01291  -0.1389  0.8885  0.0605  -2.3474   0.0000   0.0000   0.0000  -0.8127
  -4.000  -0.1228   0.01644   0.01254  -0.1380  0.8864  0.0618  -2.2788   0.0000   0.0000   0.0000  -0.9133
  -3.900  -0.1085   0.01610   0.01217  -0.1374  0.8844  0.0633  -2.2067   0.0000   0.0000   0.0000  -1.0602
  -3.800  -0.0920   0.01575   0.01180  -0.1371  0.8822  0.0651  -2.1307   0.0000   0.0000   0.0000  -1.2892
  -3.700  -0.0735   0.01539   0.01141  -0.1371  0.8797  0.0670  -2.0510   0.0000   0.0000   0.0000  -1.6748
  -3.600  -0.0528   0.01501   0.01099  -0.1374  0.8764  0.0690  -1.9678   0.0000   0.0000   0.0000  -2.4288
  -3.400  -0.0130   0.01428   0.01019  -0.1378  0.8664  0.0795  -1.8122   0.0000   0.0000   0.0000  -10.6299
  -3.300   0.0031   0.01392   0.00984  -0.1375  0.8613  0.0868  -1.7427   0.0000   0.0000   0.0000  46.3049
  -3.200   0.0224   0.01358   0.00949  -0.1378  0.8574  0.0939  -1.6676   0.0000   0.0000   0.0000   6.5541
  -3.100   0.0432   0.01331   0.00921  -0.1381  0.8551  0.0989  -1.5961   0.0000   0.0000   0.0000   3.5270
  -3.000   0.0655   0.01303   0.00892  -0.1389  0.8529  0.1046  -1.5306   0.0000   0.0000   0.0000   2.4190
  -2.900   0.0895   0.01266   0.00856  -0.1403  0.8503  0.1139  -1.4638   0.0000   0.0000   0.0000   1.8502
  -2.700   0.1285   0.01211   0.00807  -0.1410  0.8432  0.1360  -1.3477   0.0000   0.0000   0.0000   1.3682
  -2.600   0.1502   0.01179   0.00778  -0.1420  0.8394  0.1491  -1.2883   0.0000   0.0000   0.0000   1.2122
  -2.500   0.1759   0.01132   0.00739  -0.1443  0.8356  0.1769  -1.2254   0.0000   0.0000   0.0000   1.0838
  -2.400   0.2104   0.01056   0.00676  -0.1491  0.8301  0.2242  -1.1529   0.0000   0.0000   0.0000   0.9694
  -2.300   0.3869   0.00669   0.00355  -0.1912  0.8182  0.4949  -0.9033   0.0000   0.0000   0.0000   0.7487
  -2.200   0.4202   0.00655   0.00351  -0.1937  0.8084  0.5362  -0.8366   0.0000   0.0000   0.0000   0.7147
  -2.100   0.4430   0.00655   0.00347  -0.1937  0.7972  0.5495  -0.8615   0.0000   0.0000   0.0000   0.6904
  -2.000   0.4631   0.00660   0.00350  -0.1931  0.7796  0.5581  -0.9057   0.0000   0.0000   0.0000   0.6698
  -1.900   0.4788   0.00671   0.00355  -0.1916  0.7547  0.5654  -0.9456   0.0000   0.0000   0.0000   0.6525
  -1.800   0.4895   0.00690   0.00361  -0.1891  0.7229  0.5707  -0.9804   0.0000   0.0000   0.0000   0.6384
  -1.700   0.4929   0.00719   0.00374  -0.1854  0.6817  0.5738  -1.0072   0.0000   0.0000   0.0000   0.6279
  -1.600   0.4897   0.00758   0.00395  -0.1806  0.6302  0.5762  -1.0261   0.0000   0.0000   0.0000   0.6203
  -1.500   0.4836   0.00798   0.00419  -0.1753  0.5831  0.5783  -1.0414   0.0000   0.0000   0.0000   0.6138
  -1.300   0.4715   0.00895   0.00480  -0.1653  0.4835  0.5816  -1.0715   0.0000   0.0000   0.0000   0.6014
  -1.200   0.4735   0.00943   0.00515  -0.1618  0.4341  0.5839  -1.0962   0.0000   0.0000   0.0000   0.5923
  -1.100   0.4803   0.00985   0.00547  -0.1591  0.3993  0.5861  -1.1271   0.0000   0.0000   0.0000   0.5816
  -0.900   0.4974   0.01069   0.00607  -0.1546  0.3163  0.5901  -1.1939   0.0000   0.0000   0.0000   0.5606
  -0.800   0.5072   0.01109   0.00635  -0.1526  0.2789  0.5918  -1.2295   0.0000   0.0000   0.0000   0.5504
  -0.700   0.5178   0.01148   0.00664  -0.1507  0.2441  0.5943  -1.2665   0.0000   0.0000   0.0000   0.5403
  -0.600   0.5297   0.01183   0.00691  -0.1490  0.2157  0.5969  -1.3102   0.0000   0.0000   0.0000   0.5303
  -0.500   0.5427   0.01217   0.00716  -0.1475  0.1877  0.5988  -1.3587   0.0000   0.0000   0.0000   0.5205
  -0.400   0.5571   0.01248   0.00738  -0.1462  0.1622  0.5998  -1.4102   0.0000   0.0000   0.0000   0.5111
  -0.300   0.5728   0.01276   0.00759  -0.1452  0.1448  0.6005  -1.4648   0.0000   0.0000   0.0000   0.5019
  -0.200   0.5902   0.01298   0.00777  -0.1445  0.1303  0.6023  -1.5235   0.0000   0.0000   0.0000   0.4930
  -0.100   0.6076   0.01318   0.00796  -0.1436  0.1169  0.6040  -1.5834   0.0000   0.0000   0.0000   0.4844
   0.000   0.6248   0.01339   0.00816  -0.1427  0.1088  0.6054  -1.6443   0.0000   0.0000   0.0000   0.4762
   0.100   0.6410   0.01364   0.00839  -0.1416  0.1001  0.6066  -1.7043   0.0000   0.0000   0.0000   0.4685
   0.200   0.6591   0.01382   0.00859  -0.1407  0.0958  0.6076  -1.7691   0.0000   0.0000   0.0000   0.4609
   0.300   0.6767   0.01402   0.00880  -0.1397  0.0909  0.6088  -1.8344   0.0000   0.0000   0.0000   0.4537
   0.400   0.6930   0.01426   0.00906  -0.1384  0.0859  0.6104  -1.8987   0.0000   0.0000   0.0000   0.4468
   0.500   0.7087   0.01452   0.00933  -0.1369  0.0809  0.6121  -1.9629   0.0000   0.0000   0.0000   0.4402
   0.600   0.7246   0.01478   0.00960  -0.1355  0.0754  0.6136  -2.0319   0.0000   0.0000   0.0000   0.4339
   0.700   0.7413   0.01503   0.00988  -0.1343  0.0708  0.6147  -2.1105   0.0000   0.0000   0.0000   0.4278
   0.800   0.7586   0.01528   0.01017  -0.1330  0.0688  0.6156  -2.1923   0.0000   0.0000   0.0000   0.4219
   0.900   0.7759   0.01553   0.01046  -0.1318  0.0677  0.6165  -2.2779   0.0000   0.0000   0.0000   0.4162
   1.000   0.7927   0.01581   0.01077  -0.1304  0.0665  0.6177  -2.3637   0.0000   0.0000   0.0000   0.4108
   1.100   0.8091   0.01610   0.01111  -0.1290  0.0653  0.6189  -2.4495   0.0000   0.0000   0.0000   0.4055
   1.200   0.8251   0.01643   0.01149  -0.1274  0.0640  0.6200  -2.5351   0.0000   0.0000   0.0000   0.4003
   1.300   0.8406   0.01678   0.01189  -0.1258  0.0628  0.6212  -2.6200   0.0000   0.0000   0.0000   0.3954
   1.400   0.8556   0.01718   0.01234  -0.1240  0.0616  0.6221  -2.7031   0.0000   0.0000   0.0000   0.3906
   1.500   0.8702   0.01761   0.01282  -0.1222  0.0605  0.6229  -2.7841   0.0000   0.0000   0.0000   0.3859
   1.600   0.8843   0.01807   0.01335  -0.1203  0.0595  0.6236  -2.8622   0.0000   0.0000   0.0000   0.3814
   1.700   0.8981   0.01858   0.01392  -0.1183  0.0586  0.6241  -2.9368   0.0000   0.0000   0.0000   0.3770
   1.800   0.9118   0.01912   0.01454  -0.1163  0.0579  0.6247  -3.0070   0.0000   0.0000   0.0000   0.3726
   1.900   0.9255   0.01969   0.01520  -0.1143  0.0573  0.6252  -3.0708   0.0000   0.0000   0.0000   0.3684
   2.000   0.9395   0.02031   0.01591  -0.1122  0.0568  0.6257  -3.1314   0.0000   0.0000   0.0000   0.3642
   2.100   0.9540   0.02099   0.01669  -0.1101  0.0564  0.6262  -3.1865   0.0000   0.0000   0.0000   0.3601
   2.200   0.9689   0.02173   0.01755  -0.1082  0.0560  0.6266  -3.2347   0.0000   0.0000   0.0000   0.3562
   2.300   0.9834   0.02256   0.01850  -0.1062  0.0556  0.6270  -3.2748   0.0000   0.0000   0.0000   0.3525
   2.400   0.9967   0.02350   0.01957  -0.1043  0.0553  0.6274  -3.3062   0.0000   0.0000   0.0000   0.3489
   2.500   1.0079   0.02454   0.02075  -0.1023  0.0549  0.6278  -3.3289   0.0000   0.0000   0.0000   0.3457
   2.600   1.0166   0.02568   0.02202  -0.1002  0.0545  0.6281  -3.3440   0.0000   0.0000   0.0000   0.3427
   2.700   1.0226   0.02690   0.02338  -0.0981  0.0541  0.6284  -3.3530   0.0000   0.0000   0.0000   0.3399
   2.800   1.0259   0.02820   0.02481  -0.0959  0.0538  0.6287  -3.3572   0.0000   0.0000   0.0000   0.3373
   2.900   1.0269   0.02957   0.02630  -0.0937  0.0534  0.6289  -3.3577   0.0000   0.0000   0.0000   0.3350
   3.000   1.0263   0.03101   0.02785  -0.0916  0.0531  0.6292  -3.3551   0.0000   0.0000   0.0000   0.3329
   3.100   1.0244   0.03252   0.02948  -0.0896  0.0528  0.6294  -3.3502   0.0000   0.0000   0.0000   0.3310
   3.200   1.0211   0.03412   0.03117  -0.0878  0.0525  0.6296  -3.3430   0.0000   0.0000   0.0000   0.3294
   3.300   1.0165   0.03580   0.03295  -0.0861  0.0523  0.6298  -3.3341   0.0000   0.0000   0.0000   0.3280
   3.400   1.0110   0.03756   0.03480  -0.0846  0.0520  0.6300  -3.3234   0.0000   0.0000   0.0000   0.3269
   3.500   1.0047   0.03941   0.03673  -0.0834  0.0518  0.6301  -3.3114   0.0000   0.0000   0.0000   0.3260
   3.600   0.9979   0.04134   0.03874  -0.0825  0.0515  0.6303  -3.2980   0.0000   0.0000   0.0000   0.3255
   3.700   0.9904   0.04335   0.04083  -0.0818  0.0513  0.6304  -3.2836   0.0000   0.0000   0.0000   0.3253
   3.800   0.9823   0.04547   0.04302  -0.0814  0.0511  0.6307  -3.2681   0.0000   0.0000   0.0000   0.3255
   3.900   0.9743   0.04769   0.04531  -0.0814  0.0508  0.6312  -3.2515   0.0000   0.0000   0.0000   0.3260
   4.000   0.9658   0.05001   0.04768  -0.0817  0.0504  0.6316  -3.2396   0.0000   0.0000   0.0000   0.3269
   4.100   0.9567   0.05245   0.05018  -0.0824  0.0498  0.6320  -3.2290   0.0000   0.0000   0.0000   0.3283
   4.200   0.9480   0.05505   0.05283  -0.0834  0.0489  0.6323  -3.1993   0.0000   0.0000   0.0000   0.3301
   4.300   0.9402   0.05771   0.05554  -0.0846  0.0482  0.6327  -3.1618   0.0000   0.0000   0.0000   0.3320
   4.400   0.9326   0.06045   0.05832  -0.0861  0.0473  0.6330  -3.1256   0.0000   0.0000   0.0000   0.3343
   4.500   0.9254   0.06326   0.06117  -0.0879  0.0465  0.6333  -3.1086   0.0000   0.0000   0.0000   0.3368
   4.600   0.9188   0.06613   0.06406  -0.0898  0.0456  0.6335  -3.0991   0.0000   0.0000   0.0000   0.3395
   4.700   0.9128   0.06903   0.06699  -0.0918  0.0447  0.6338  -3.0882   0.0000   0.0000   0.0000   0.3423
   4.800   0.9077   0.07197   0.06995  -0.0940  0.0439  0.6341  -3.0767   0.0000   0.0000   0.0000   0.3453
   4.900   0.9037   0.07497   0.07296  -0.0964  0.0430  0.6343  -3.0648   0.0000   0.0000   0.0000   0.3482
   5.000   0.9001   0.07785   0.07584  -0.0985  0.0423  0.6346  -3.0553   0.0000   0.0000   0.0000   0.3509
   5.100   0.8968   0.08060   0.07859  -0.1003  0.0416  0.6349  -3.0487   0.0000   0.0000   0.0000   0.3533
   5.200   0.8939   0.08325   0.08125  -0.1020  0.0411  0.6351  -3.0446   0.0000   0.0000   0.0000   0.3555
   5.300   0.8914   0.08583   0.08383  -0.1036  0.0406  0.6354  -3.0427   0.0000   0.0000   0.0000   0.3575
   5.400   0.8892   0.08837   0.08637  -0.1051  0.0401  0.6356  -3.0426   0.0000   0.0000   0.0000   0.3595
   5.500   0.8872   0.09087   0.08887  -0.1066  0.0397  0.6359  -3.0439   0.0000   0.0000   0.0000   0.3613
   5.600   0.8846   0.09346   0.09145  -0.1082  0.0392  0.6361  -3.0321   0.0000   0.0000   0.0000   0.3634
   5.700   0.8805   0.09628   0.09427  -0.1100  0.0383  0.6364  -2.9913   0.0000   0.0000   0.0000   0.3659
   5.800   0.8776   0.09897   0.09696  -0.1116  0.0375  0.6366  -2.9613   0.0000   0.0000   0.0000   0.3682
   5.900   0.8753   0.10161   0.09960  -0.1132  0.0367  0.6369  -2.9355   0.0000   0.0000   0.0000   0.3703
   6.000   0.8734   0.10419   0.10218  -0.1148  0.0359  0.6371  -2.9120   0.0000   0.0000   0.0000   0.3723
   6.100   0.8720   0.10673   0.10472  -0.1163  0.0352  0.6374  -2.8903   0.0000   0.0000   0.0000   0.3741
   6.200   0.8710   0.10925   0.10724  -0.1178  0.0345  0.6376  -2.8702   0.0000   0.0000   0.0000   0.3759
   6.300   0.8705   0.11174   0.10973  -0.1193  0.0338  0.6379  -2.8518   0.0000   0.0000   0.0000   0.3776
   6.400   0.8704   0.11422   0.11220  -0.1207  0.0332  0.6382  -2.8350   0.0000   0.0000   0.0000   0.3792
   6.500   0.8708   0.11667   0.11465  -0.1222  0.0326  0.6385  -2.8201   0.0000   0.0000   0.0000   0.3808
   6.600   0.8714   0.11910   0.11708  -0.1236  0.0321  0.6387  -2.8070   0.0000   0.0000   0.0000   0.3822
   6.700   0.8725   0.12151   0.11949  -0.1251  0.0317  0.6390  -2.7958   0.0000   0.0000   0.0000   0.3836
   6.800   0.8738   0.12391   0.12189  -0.1265  0.0313  0.6393  -2.7865   0.0000   0.0000   0.0000   0.3849
   6.900   0.8755   0.12629   0.12426  -0.1279  0.0309  0.6396  -2.7788   0.0000   0.0000   0.0000   0.3862
   7.000   0.8774   0.12865   0.12663  -0.1293  0.0306  0.6399  -2.7726   0.0000   0.0000   0.0000   0.3873
   7.100   0.8795   0.13100   0.12898  -0.1307  0.0304  0.6402  -2.7675   0.0000   0.0000   0.0000   0.3885
   7.200   0.8818   0.13335   0.13133  -0.1321  0.0301  0.6405  -2.7630   0.0000   0.0000   0.0000   0.3896
   7.300   0.8842   0.13570   0.13368  -0.1335  0.0299  0.6408  -2.7583   0.0000   0.0000   0.0000   0.3907
   7.400   0.8863   0.13812   0.13609  -0.1350  0.0297  0.6411  -2.7490   0.0000   0.0000   0.0000   0.3919
   7.500   0.8882   0.14065   0.13861  -0.1366  0.0294  0.6414  -2.7241   0.0000   0.0000   0.0000   0.3933
   7.600   0.8903   0.14320   0.14117  -0.1382  0.0292  0.6418  -2.6921   0.0000   0.0000   0.0000   0.3946
   7.700   0.8927   0.14576   0.14373  -0.1398  0.0290  0.6421  -2.6605   0.0000   0.0000   0.0000   0.3959
   7.800   0.8951   0.14833   0.14630  -0.1413  0.0288  0.6425  -2.6271   0.0000   0.0000   0.0000   0.3972
   7.900   0.8977   0.15089   0.14885  -0.1429  0.0286  0.6429  -2.5954   0.0000   0.0000   0.0000   0.3984
   8.000   0.9006   0.15343   0.15139  -0.1445  0.0284  0.6433  -2.5652   0.0000   0.0000   0.0000   0.3996
   8.100   0.9037   0.15597   0.15393  -0.1461  0.0283  0.6437  -2.5364   0.0000   0.0000   0.0000   0.4007
   8.200   0.9070   0.15850   0.15646  -0.1476  0.0281  0.6441  -2.5088   0.0000   0.0000   0.0000   0.4017
   8.300   0.9105   0.16104   0.15900  -0.1492  0.0280  0.6445  -2.4825   0.0000   0.0000   0.0000   0.4028
   8.400   0.9142   0.16358   0.16154  -0.1508  0.0279  0.6448  -2.4572   0.0000   0.0000   0.0000   0.4037
   8.500   0.9181   0.16612   0.16408  -0.1524  0.0278  0.6451  -2.4330   0.0000   0.0000   0.0000   0.4047
   8.600   0.9223   0.16866   0.16661  -0.1540  0.0277  0.6454  -2.4098   0.0000   0.0000   0.0000   0.4055
   8.700   0.9265   0.17120   0.16915  -0.1556  0.0277  0.6457  -2.3875   0.0000   0.0000   0.0000   0.4064
   8.800   0.9310   0.17374   0.17170  -0.1571  0.0276  0.6460  -2.3660   0.0000   0.0000   0.0000   0.4072
   8.900   0.9355   0.17628   0.17424  -0.1587  0.0276  0.6463  -2.3454   0.0000   0.0000   0.0000   0.4080
   9.000   0.9403   0.17882   0.17678  -0.1603  0.0276  0.6466  -2.3258   0.0000   0.0000   0.0000   0.4087
   9.100   0.9451   0.18136   0.17932  -0.1619  0.0276  0.6469  -2.3070   0.0000   0.0000   0.0000   0.4094
   9.200   0.9501   0.18390   0.18186  -0.1635  0.0276  0.6472  -2.2890   0.0000   0.0000   0.0000   0.4101



